iter  continuity x-velocity y-velocity Energy
1     1.2151e+01 1.0324e+04 2.0545e+03 7.3362e+06
