iter  continuity x-velocity y-velocity Energy
1     2.0864e+00 1.5913e+03 4.0530e+02 1.0362e+06
2     2.5654e+00 1.9684e+03 4.4941e+02 1.3070e+06
3     3.1229e+00 2.4137e+03 5.0516e+02 1.6292e+06
4     4.1685e+00 3.5318e+03 7.0088e+02 2.4805e+06
5     6.2459e+00 5.3976e+03 1.0629e+03 3.8556e+06
6     9.9571e+00 9.2199e+03 1.7108e+03 6.6894e+06
