iter  continuity x-velocity y-velocity Energy
1     8.8283e+00 5.5172e+03 2.0626e+02 4.3845e+06
