iter  continuity x-velocity y-velocity Energy
1     9.8510e+00 7.7760e+03 1.8029e+03 5.2784e+06
