iter  continuity x-velocity y-velocity Energy
1     5.8836e+00 3.6769e+03 9.3126e+02 2.9220e+06
2     5.8836e+00 3.6769e+03 9.3126e+02 2.9220e+06
