iter  continuity x-velocity y-velocity Energy
1     1.2207e+00 1.9014e+03 2.9349e+02 1.2683e+06
