iter  continuity x-velocity y-velocity Energy
1     4.4127e+00 4.4127e+00 0.0000e+00 4.4127e+00 
