iter  continuity x-velocity y-velocity Energy
1     1.1102e-15 0.0000e+00 2.0817e-16 2.0817e-16
2     2.2174e-07 2.2174e-07 1.8707e-07 0.0000e+00
3     1.7968e-05 1.7968e-05 1.0638e-07 8.8818e-16
4     3.5712e-05 3.5712e-05 2.2563e-05 0.0000e+00
5     4.9967e-05 4.9967e-05 3.0644e-05 0.0000e+00
6     4.5743e-05 3.8917e-05 2.5160e-05 -2.8063e-16
7     5.4584e-05 5.4584e-05 1.3149e-05 3.0609e-16
8     5.7458e-05 3.6118e-05 1.2536e-08 5.7458e-05
9     5.1394e-05 5.1239e-05 3.4181e-05 5.1394e-05
10    5.7852e-05 3.1875e-05 2.4397e-05 5.7852e-05
11    5.7106e-05 4.5673e-05 1.2996e-05 4.5673e-05
12    5.3821e-05 2.7556e-05 1.9487e-06 5.3821e-05
13    5.6373e-05 3.9858e-05 3.0121e-05 3.9858e-05
14    5.4519e-05 2.3594e-05 2.0638e-05 4.8380e-05
15    5.3314e-05 3.4471e-05 1.0971e-05 3.4471e-05
16    5.5352e-05 2.0100e-05 1.9633e-06 4.2799e-05
17    5.3768e-05 2.9701e-05 2.5111e-05 4.8089e-05
18    5.3453e-05 1.7066e-05 1.6865e-05 3.7576e-05
19    5.3892e-05 2.5555e-05 8.8771e-06 4.3230e-05
20    5.1812e-05 1.4447e-05 1.5422e-06 3.2878e-05
21    5.2030e-05 2.1974e-05 2.0626e-05 3.8579e-05
22    5.1577e-05 1.2189e-05 1.3674e-05 2.8724e-05
23    4.9326e-05 1.8887e-05 7.0946e-06 3.4294e-05
24    4.9975e-05 1.0239e-05 1.0827e-06 2.5080e-05
25    4.9450e-05 1.6221e-05 1.6918e-05 3.0421e-05
26    4.7999e-05 8.5531e-06 1.1101e-05 2.1890e-05
27    4.8447e-05 1.3914e-05 5.6582e-06 2.6952e-05
28    4.7503e-05 7.0911e-06 6.8919e-07 1.9099e-05
29    4.6656e-05 1.1911e-05 1.3923e-05 2.3860e-05
30    4.6548e-05 5.8206e-06 9.0512e-06 1.9199e-05
31    4.5370e-05 1.0167e-05 4.5193e-06 2.1108e-05
32    4.4952e-05 5.7518e-06 3.7825e-07 1.7034e-05
33    4.4691e-05 8.6451e-06 1.1513e-05 1.8660e-05
34    4.3570e-05 1.2617e-05 7.4166e-06 1.5100e-05
35    4.3596e-05 7.3132e-06 3.6180e-06 1.6482e-05
36    4.3084e-05 1.0952e-05 1.4149e-07 1.3372e-05
37    4.2101e-05 6.1450e-06 9.5661e-06 1.4542e-05
38    4.2095e-05 9.4815e-06 6.1060e-06 1.1827e-05
39    4.1390e-05 5.1184e-06 2.9025e-06 1.2812e-05
40    4.0757e-05 8.1807e-06 1.1130e-05 1.1162e-05
41    4.0586e-05 4.2147e-06 7.9842e-06 1.3868e-05
42    3.9885e-05 7.0282e-06 5.0479e-06 1.0018e-05
43    3.9609e-05 5.1675e-06 2.3316e-06 1.2367e-05
44    3.9308e-05 6.0056e-06 9.3785e-06 8.9783e-06
45    3.8496e-05 4.4165e-06 6.6899e-06 1.1015e-05
46    3.8427e-05 5.0972e-06 4.1877e-06 1.1315e-05
47    3.7977e-05 3.7442e-06 1.8738e-06 9.7978e-06
48    3.7319e-05 4.2895e-06 7.9287e-06 1.0038e-05
49    3.7213e-05 3.8785e-06 5.6243e-06 8.7014e-06
50    3.6750e-05 3.5706e-06 3.4841e-06 1.1183e-05
51    3.6371e-05 3.3780e-06 1.5050e-06 8.8693e-06
52    3.6197e-05 4.6924e-06 6.7224e-06 1.0024e-05
53    3.5639e-05 2.9222e-06 4.7419e-06 7.9630e-06
54    3.5432e-05 4.0463e-06 2.9053e-06 8.9732e-06
55    3.5141e-05 2.7873e-06 1.2068e-06 7.1391e-06
56    3.4515e-05 3.4656e-06 5.7139e-06 8.0203e-06
57    3.4449e-05 3.5372e-06 4.0076e-06 6.3900e-06
58    3.4139e-05 2.9435e-06 2.4271e-06 7.1559e-06
59    3.3717e-05 2.9637e-06 9.6499e-07 5.7090e-06
60    3.3631e-05 3.4369e-06 4.8672e-06 7.4965e-06
61    3.3242e-05 4.0441e-06 3.3940e-06 5.8532e-06
62    3.2961e-05 2.9984e-06 2.0303e-06 6.7479e-06
63    3.2781e-05 3.5091e-06 7.6850e-07 5.3017e-06
64    3.2330e-05 2.6003e-06 4.1538e-06 6.0656e-06
65    3.2170e-05 3.0254e-06 2.8792e-06 4.7953e-06
66    3.1955e-05 2.2391e-06 1.7001e-06 5.4436e-06
67    3.1511e-05 2.5882e-06 6.0864e-07 4.3306e-06
68    3.1489e-05 1.9112e-06 3.5508e-06 4.8767e-06
69    3.1220e-05 2.1928e-06 2.4460e-06 3.9041e-06
70    3.0895e-05 2.3042e-06 1.4246e-06 4.3598e-06
71    3.0795e-05 2.7420e-06 4.7852e-07 3.5128e-06
72    3.0470e-05 2.0357e-06 3.0396e-06 4.7095e-06
73    3.0247e-05 2.3920e-06 2.0805e-06 3.7041e-06
74    3.0106e-05 1.7892e-06 1.1941e-06 4.2629e-06
75    2.9774e-05 2.0738e-06 3.7263e-07 3.3916e-06
76    2.9677e-05 1.5631e-06 2.6052e-06 3.8532e-06
77    2.9497e-05 1.7843e-06 1.7715e-06 3.1016e-06
78    2.9141e-05 1.8560e-06 1.0010e-06 3.4775e-06
79    2.9102e-05 1.5211e-06 2.8653e-07 2.8329e-06
80    2.8871e-05 1.6796e-06 2.2353e-06 3.1328e-06
81    2.8604e-05 1.9935e-06 1.5095e-06 2.5838e-06
82    2.8520e-05 1.5154e-06 8.3890e-07 2.8168e-06
83    2.8279e-05 1.7613e-06 2.1665e-07 2.3530e-06
84    2.8121e-05 1.3627e-06 1.9197e-06 2.5269e-06
85    2.8008e-05 1.5485e-06 1.2872e-06 2.1393e-06
86    2.7726e-05 1.2207e-06 7.0274e-07 2.8919e-06
87    2.7639e-05 1.3536e-06 1.6007e-07 1.9414e-06
88    2.7480e-05 1.0889e-06 1.6500e-06 2.6395e-06
89    2.7182e-05 1.1749e-06 1.0982e-06 2.2084e-06
90    2.7142e-05 1.3559e-06 5.8824e-07 1.5235e-06
91    2.6971e-05 1.5888e-06 1.1441e-07 2.0490e-06
92    2.6769e-05 1.2565e-06 1.4193e-06 1.4582e-06
93    2.6708e-05 1.4320e-06 9.3736e-07 1.8994e-06
94    2.6499e-05 1.1624e-06 4.9190e-07 1.3939e-06
95    2.6360e-05 1.2870e-06 7.7721e-08 1.7592e-06
96    2.6257e-05 1.0735e-06 1.2215e-06 1.3308e-06
97    2.6015e-05 1.1528e-06 8.0028e-07 1.6278e-06
98    2.5933e-05 9.8935e-07 4.1080e-07 1.2691e-06
99    2.5817e-05 1.0287e-06 2.5388e-15 1.5047e-06
100   2.5581e-05 9.0995e-07 1.0519e-06 1.2088e-06
101   2.5561e-05 9.1397e-07 5.7865e-15 1.3894e-06
102   2.5409e-05 8.3502e-07 1.0816e-14 1.1500e-06
103   2.5231e-05 8.0784e-07 1.4883e-15 1.2815e-06
104   2.5172e-05 7.6098e-07 9.1057e-15 1.0896e-06
105   2.4989e-05 1.1699e-06 2.5676e-15 1.1699e-06
106   2.4863e-05 1.0404e-06 -3.6670e+00 1.0404e-06
107   2.4788e-05 7.1108e-07 -3.6713e+00 1.0758e-06
108   2.4596e-05 9.8961e-07 3.6259e-15 9.8961e-07
109   2.4539e-05 7.2005e-07 2.8698e-15 9.8618e-07
110   2.4433e-05 9.3772e-07 -2.1566e-15 9.3772e-07
111   2.4224e-05 7.2181e-07 3.0623e-15 7.7615e-07
112   2.4201e-05 8.8526e-07 8.2186e-16 8.8526e-07
113   2.4065e-05 7.1741e-07 1.6543e-14 7.1741e-07
114   2.3906e-05 8.3273e-07 3.3435e-15 8.3273e-07
115   2.3864e-05 7.0781e-07 5.7304e-15 7.0781e-07
116   2.3719e-05 7.8055e-07 -5.0891e-15 7.8055e-07
117   2.3621e-05 6.9388e-07 1.1282e-14 6.9388e-07
118   2.3552e-05 7.2909e-07 2.7373e-14 7.2909e-07
119   2.3382e-05 6.7637e-07 8.3924e-15 6.7637e-07
120   2.3325e-05 6.7864e-07 9.2344e-15 6.7864e-07
121   2.3229e-05 6.5594e-07 -4.5952e-15 6.5594e-07
122   2.3042e-05 6.2941e-07 3.0174e-15 6.2941e-07
123   2.3027e-05 6.3316e-07 6.3344e-15 6.3316e-07
124   2.2921e-05 5.5349e-07 1.2639e-14 5.5349e-07
125   2.2790e-05 6.0854e-07 1.0613e-15 6.0854e-07
126   2.2753e-05 5.0219e-07 1.1638e-14 5.0219e-07
127   2.2622e-05 5.8252e-07 1.5566e-14 5.8252e-07
128   2.2530e-05 5.0760e-07 -1.1937e-14 5.0760e-07
129   2.2466e-05 5.5547e-07 1.7760e-15 5.5547e-07
130   2.2313e-05 5.0861e-07 3.9370e-14 5.0861e-07
131   2.2266e-05 5.2771e-07 -1.6180e-15 5.2771e-07
132   2.2191e-05 5.0581e-07 -6.8334e-15 5.0581e-07
133   2.2035e-05 4.9952e-07 4.8748e-16 4.9952e-07
134   2.2022e-05 4.9977e-07 2.7718e-15 4.9977e-07
135   2.1925e-05 4.7112e-07 4.8133e-15 4.1484e-07
136   2.1804e-05 4.9094e-07 -4.3533e-15 4.9094e-07
137   2.1767e-05 4.5704e-07 6.2747e-15 4.5704e-07
138   2.1648e-05 4.7978e-07 3.0072e-16 4.7978e-07
139   2.1456e-05 4.9181e-07 2.8865e-15 4.0428e-07
140   2.1193e-05 4.6667e-07 -4.2507e-16 4.6667e-07
141   2.0859e-05 4.1492e-07 3.4872e-15 4.1492e-07
142   2.0655e-05 4.5195e-07 -7.5677e-15 4.5195e-07
143   2.0573e-05 4.2152e-07 2.8846e-15 4.2152e-07
144   2.0418e-05 4.3592e-07 8.7015e-15 4.3592e-07
145   2.0375e-05 4.2456e-07 1.5899e-14 4.2456e-07
146   2.0268e-05 4.1885e-07 5.6749e-15 4.1885e-07
147   2.0140e-05 4.2449e-07 2.4775e-14 4.2449e-07
148   2.0084e-05 3.7877e-07 6.1816e-15 3.7877e-07
149   1.9963e-05 4.2172e-07 5.4166e-16 4.2172e-07
150   1.9885e-05 4.1504e-07 3.1319e-15 3.4230e-07
151   1.9809e-05 4.1662e-07 1.8719e-16 4.1662e-07
152   1.9666e-05 3.5766e-07 3.7047e-15 3.5766e-07
153   1.9620e-05 4.0952e-07 -1.0650e-15 4.0952e-07
154   1.9521e-05 3.6906e-07 9.4104e-15 3.6906e-07
155   1.9407e-05 4.0071e-07 1.0743e-14 4.0071e-07
156   1.9357e-05 3.7693e-07 -5.2026e-15 3.7693e-07
157   1.9243e-05 3.9047e-07 4.9379e-15 3.9047e-07
158   1.9167e-05 3.8167e-07 6.1132e-15 3.8167e-07
159   1.9094e-05 3.7903e-07 -4.0248e-15 3.2903e-07
160   1.8960e-05 3.8367e-07 2.3024e-14 3.8367e-07
161   1.8913e-05 3.6431e-07 -6.2899e-15 3.0084e-07
162   1.8825e-05 3.8324e-07 2.2746e-15 3.8324e-07
163   1.8722e-05 3.1817e-07 7.2677e-15 3.1817e-07
164   1.8674e-05 3.8070e-07 7.9805e-15 3.8070e-07
165   1.8566e-05 3.3178e-07 -8.6384e-15 3.3178e-07
166   1.8491e-05 3.7632e-07 7.3037e-15 3.7632e-07
167   1.8422e-05 3.4207e-07 -1.1734e-14 3.4207e-07
168   1.8296e-05 3.7035e-07 8.6018e-15 3.7035e-07
169   1.8260e-05 3.4937e-07 2.3043e-14 3.4937e-07
170   1.8175e-05 3.6301e-07 -4.4751e-15 2.9418e-07
171   1.8078e-05 3.5403e-07 -1.3451e-14 3.5403e-07
172   1.8029e-05 3.2724e-07 1.7703e-14 2.6946e-07
173   1.7926e-05 3.5633e-07 9.6183e-15 3.5633e-07
174   1.7856e-05 2.8721e-07 5.0547e-15 2.8721e-07
175   1.7792e-05 3.5655e-07 6.2269e-15 3.5655e-07
176   1.7674e-05 3.0156e-07 1.4206e-14 3.0156e-07
177   1.7643e-05 3.5493e-07 1.8859e-14 3.5493e-07
178   1.7561e-05 3.1285e-07 -3.1056e-15 3.1285e-07
179   1.7468e-05 3.5171e-07 -9.1147e-15 3.5171e-07
180   1.7420e-05 3.2139e-07 3.2660e-14 3.2139e-07
181   1.7321e-05 3.4709e-07 1.4487e-15 2.6693e-07
182   1.7266e-05 3.2744e-07 -1.2995e-14 3.2744e-07
183   1.7202e-05 2.9720e-07 1.7000e-14 2.4284e-07
184   1.7091e-05 3.3129e-07 6.7377e-15 3.3129e-07
185   1.7059e-05 2.6013e-07 1.0049e-14 2.6013e-07
186   1.6979e-05 3.3316e-07 4.8178e-15 2.0020e-07
187   1.6898e-05 2.7437e-07 1.9380e-14 2.7437e-07
188   1.6850e-05 3.3328e-07 8.2817e-15 1.9809e-07
189   1.6755e-05 2.8583e-07 1.1689e-14 2.8583e-07
190   1.6706e-05 3.3185e-07 -1.1689e-15 2.1188e-07
191   1.6641e-05 2.9478e-07 6.6843e-15 2.9478e-07
192   1.6539e-05 2.4324e-07 -1.6140e-15 2.4324e-07
193   1.6505e-05 3.0147e-07 -3.6079e-15 1.8986e-07
194   1.6426e-05 2.7053e-07 -1.3683e-14 2.1820e-07
195   1.6360e-05 3.0612e-07 1.3401e-14 1.9154e-07
196   1.6310e-05 2.8858e-07 5.2304e-15 2.3036e-07
197   1.6217e-05 3.1237e-07 1.4404e-14 1.9349e-07
198   1.6172e-05 2.3539e-07 2.5834e-14 2.3539e-07
199   1.6107e-05 3.0981e-07 2.6475e-14 1.9026e-07
200   1.6023e-05 2.3998e-07 3.4793e-17 2.3998e-07
201   1.5986e-05 3.0712e-07 -6.2214e-15 1.8700e-07
202   1.5908e-05 2.4425e-07 1.6992e-15 2.4425e-07
203   1.5847e-05 3.0445e-07 2.7773e-15 1.8385e-07
204   1.5795e-05 2.4828e-07 7.6439e-15 2.4828e-07
205   1.5703e-05 3.0188e-07 -4.1676e-15 1.8088e-07
206   1.5669e-05 2.5205e-07 -1.0131e-14 2.5205e-07
207   1.5604e-05 2.9941e-07 1.0244e-14 1.7811e-07
208   1.5529e-05 2.5557e-07 6.3882e-16 2.5557e-07
209   1.5489e-05 2.9703e-07 7.6234e-15 1.9331e-07
210   1.5411e-05 2.5882e-07 6.7451e-15 2.5882e-07
211   1.5360e-05 2.2580e-07 3.5808e-14 2.0778e-07
212   1.5305e-05 2.6178e-07 3.2673e-15 2.6178e-07
213   1.5219e-05 2.2132e-07 -2.7458e-15 1.7371e-07
214   1.5190e-05 2.6446e-07 6.0950e-14 1.6484e-07
215   1.5123e-05 2.3396e-07 1.0616e-14 1.8314e-07
216   1.5057e-05 2.6683e-07 2.1602e-14 1.6628e-07
217   1.5013e-05 2.4574e-07 2.4163e-15 1.9192e-07
218   1.4934e-05 2.6892e-07 1.0255e-14 1.6756e-07
219   1.4896e-05 2.0009e-07 1.8382e-14 2.0009e-07
220   1.4840e-05 2.7071e-07 1.0339e-14 1.6866e-07
221   1.4762e-05 2.0766e-07 -1.0338e-14 2.0766e-07
222   1.4728e-05 2.7224e-07 1.1106e-14 1.6959e-07
223   1.4660e-05 2.1467e-07 3.8693e-15 2.1467e-07
224   1.4610e-05 2.7350e-07 6.5354e-15 1.7035e-07
225   1.4563e-05 2.2114e-07 -1.5221e-14 2.2114e-07
226   1.4482e-05 2.7451e-07 4.1575e-15 1.7094e-07
227   1.4450e-05 2.2712e-07 1.4760e-14 2.2712e-07
228   1.4392e-05 2.7529e-07 7.7314e-16 1.6495e-07
229   1.4330e-05 2.3263e-07 -5.1160e-15 2.3263e-07
230   1.4291e-05 1.9735e-07 2.6876e-14 1.7971e-07
231   1.4220e-05 2.3769e-07 -1.0622e-15 1.5348e-07
232   1.4177e-05 1.9358e-07 -1.8844e-15 1.9358e-07
233   1.4128e-05 2.4233e-07 1.7783e-14 1.5711e-07
234   1.4056e-05 2.0662e-07 2.2748e-14 1.6227e-07
235   1.4025e-05 2.4658e-07 9.1902e-15 1.6045e-07
236   1.3963e-05 2.1885e-07 1.2476e-14 1.7202e-07
237   1.3910e-05 2.5045e-07 1.4535e-14 1.6350e-07
238   1.3869e-05 1.8117e-07 -1.4006e-14 1.8117e-07
239   1.3796e-05 1.6628e-07 5.5397e-15 1.6628e-07
240   1.3765e-05 1.8975e-07 2.9931e-14 1.8975e-07
241   1.3710e-05 1.6882e-07 -2.4568e-14 1.6882e-07
242   1.3649e-05 1.9779e-07 -1.7420e-14 1.9779e-07
243   1.3614e-05 1.7111e-07 2.3382e-14 1.7111e-07
244   1.3550e-05 2.0531e-07 2.6200e-14 2.0531e-07
245   1.3509e-05 1.7318e-07 -5.2860e-15 1.7318e-07
246   1.3462e-05 2.1235e-07 4.1556e-15 1.4177e-07
247   1.3393e-05 1.7504e-07 4.0766e-15 1.4984e-07
248   1.3365e-05 2.1892e-07 1.1939e-14 1.4720e-07
249   1.3308e-05 1.8106e-07 2.7823e-15 1.6439e-07
250   1.3260e-05 2.2506e-07 6.1763e-15 1.5227e-07
251   1.3218e-05 1.7816e-07 2.7797e-15 1.7816e-07
252   1.3150e-05 2.3078e-07 1.9134e-14 1.5701e-07
253   1.3121e-05 1.9119e-07 -3.7833e-15 1.5231e-07
254   1.3070e-05 1.6143e-07 1.3259e-14 1.6143e-07
255   1.3015e-05 2.0352e-07 1.0394e-14 1.6252e-07
256   1.2980e-05 1.6555e-07 -1.1697e-14 1.6555e-07
257   1.2918e-05 1.7217e-07 2.8850e-14 1.7217e-07
258   1.2881e-05 1.6939e-07 1.0261e-14 1.6939e-07
259   1.2836e-05 1.8129e-07 7.1327e-15 1.8129e-07
260   1.2776e-05 1.7295e-07 -1.1515e-14 1.7295e-07
261   1.2745e-05 1.8990e-07 1.0187e-14 1.8990e-07
262   1.2689e-05 1.7625e-07 3.1299e-14 1.7625e-07
263   1.2770e-05 1.9803e-07 1.4520e-14 1.3765e-07
264   1.2931e-05 1.7930e-07 6.9439e-15 1.7930e-07
265   1.3066e-05 2.0570e-07 -4.2461e-15 1.4416e-07
266   1.3175e-05 1.8211e-07 1.8177e-14 1.4353e-07
267   1.3259e-05 2.1294e-07 3.2444e-14 1.5030e-07
268   1.3315e-05 1.7340e-07 4.4226e-15 1.5777e-07
269   1.3344e-05 1.5609e-07 -1.3171e-14 1.5609e-07
270   1.3346e-05 1.7134e-07 8.2364e-15 1.3887e-07
271   1.3320e-05 1.6155e-07 4.4096e-14 1.6155e-07
272   1.3272e-05 1.8425e-07 2.3796e-14 1.4982e-07
273   1.3268e-05 1.6670e-07 -5.9665e-15 1.6670e-07
274   1.3239e-05 1.6024e-07 4.0830e-15 1.6024e-07
275   1.3198e-05 1.7153e-07 2.4907e-14 1.7153e-07
276   1.3188e-05 1.7016e-07 1.8113e-14 1.7016e-07
277   1.3155e-05 1.7608e-07 5.1862e-14 1.7608e-07
278   1.3126e-05 1.7958e-07 -1.1762e-14 1.2872e-07
279   1.3110e-05 1.8035e-07 1.5595e-15 1.8035e-07
280   1.3069e-05 1.8855e-07 1.1952e-14 1.3644e-07
281   1.3051e-05 1.8435e-07 2.0199e-08 1.8435e-07
282   1.3032e-05 1.9707e-07 9.8878e-08 1.4378e-07
283   1.2987e-05 1.8809e-07 1.2745e-07 1.4046e-07
284   1.2977e-05 1.5076e-07 1.6835e-14 1.5076e-07
285   1.2951e-05 1.5754e-07 1.6337e-14 1.4460e-07
286   1.2910e-05 1.5739e-07 3.4666e-15 1.5739e-07
287   1.2904e-05 1.5864e-07 -2.7608e-14 1.3097e-07
288   1.2873e-05 1.6369e-07 2.0705e-15 1.6369e-07
289   1.2840e-05 1.7208e-07 -1.1083e-14 1.4255e-07
290   1.2829e-05 1.6967e-07 3.5508e-14 1.6967e-07
291   1.2794e-05 1.5363e-07 -5.9676e-15 1.5363e-07
292   1.2772e-05 1.7535e-07 -3.1156e-15 1.7535e-07
293   1.2755e-05 1.6424e-07 1.7386e-14 1.2107e-07
294   1.2714e-05 1.8073e-07 -2.6249e-16 1.1407e-07
295   1.2703e-05 1.7440e-07 -1.1282e-14 1.2991e-07
296   1.2681e-05 1.8584e-07 1.8927e-14 1.1860e-07
297   1.2638e-05 1.8413e-07 4.7722e-15 1.3836e-07
298   1.2632e-05 1.9068e-07 8.9528e-15 1.2289e-07
299   1.2605e-05 1.4646e-07 4.1481e-15 1.4646e-07
300   1.2573e-05 1.9527e-07 2.0259e-14 1.2458e-07
301   1.2563e-05 1.5420e-07 1.0440e-14 1.5420e-07
302   1.2531e-05 1.5153e-07 -4.4723e-15 1.3972e-07
303   1.2506e-05 1.6162e-07 1.2353e-14 1.6162e-07
304   1.2493e-05 1.5430e-07 3.9069e-14 1.2961e-07
305   1.2457e-05 1.6872e-07 -2.4861e-15 1.6872e-07
306   1.2441e-05 1.4184e-07 9.6821e-06 1.4184e-07
307   1.2421e-05 1.7552e-07 4.3854e-14 1.1698e-07
308   1.2381e-05 1.5363e-07 2.7539e-14 1.1625e-07
309   1.2375e-05 1.8202e-07 9.6243e-06 1.2272e-07
310   1.2351e-05 1.6497e-07 9.5586e-06 1.2620e-07
311   1.2315e-05 1.2822e-07 9.4847e-06 1.2822e-07
312   1.2307e-05 1.3578e-07 9.3944e-06 1.3578e-07
313   1.2280e-05 1.3348e-07 9.4925e-06 1.3348e-07
314   1.2254e-05 1.4501e-07 9.4172e-06 1.4501e-07
315   1.2241e-05 1.3851e-07 9.3260e-06 1.3851e-07
316   1.2208e-05 1.5389e-07 9.2194e-06 1.5389e-07
317   1.2191e-05 1.4333e-07 9.0981e-06 1.2864e-07
318   1.2175e-05 1.6245e-07 8.9628e-06 1.1156e-07
319   1.2138e-05 1.4421e-07 8.8144e-06 1.2299e-07
320   1.2127e-05 1.7069e-07 9.0296e-06 1.1886e-07
321   1.2106e-05 1.5924e-07 8.8944e-06 1.3630e-07
322   1.2070e-05 1.7862e-07 8.7462e-06 1.2589e-07
323   1.2065e-05 1.4916e-07 8.9620e-06 1.1608e-07
324   1.2040e-05 1.3266e-07 8.8268e-06 1.3266e-07
325   1.2010e-05 1.6157e-07 8.6790e-06 1.2711e-07
326   1.2001e-05 1.3918e-07 8.5194e-06 1.3918e-07
327   1.1973e-05 1.3776e-07 8.3488e-06 1.3776e-07
328   1.1950e-05 1.4547e-07 8.6126e-06 1.4547e-07
329   1.1937e-05 1.4805e-07 8.4535e-06 1.4805e-07
330   1.1904e-05 1.5152e-07 8.2838e-06 1.5152e-07
331   1.1891e-05 1.5800e-07 8.1042e-06 1.1285e-07
332   1.1874e-05 1.5735e-07 8.3885e-06 1.2397e-07
333   1.1837e-05 1.6760e-07 8.2197e-06 1.2144e-07
334   1.1830e-05 1.4010e-07 8.0411e-06 1.2232e-07
335   1.1809e-05 1.2974e-07 7.8539e-06 1.2974e-07
336   1.1772e-05 1.3637e-07 8.1563e-06 1.3637e-07
337   1.1767e-05 1.3776e-07 7.9789e-06 1.3776e-07
338   1.1744e-05 1.4995e-07 7.7928e-06 1.2082e-07
339   1.1711e-05 1.4551e-07 7.5991e-06 1.4551e-07
340   1.1703e-05 1.3268e-07 7.9174e-06 1.3268e-07
341   1.1677e-05 1.5299e-07 7.7326e-06 1.5299e-07
342   1.1649e-05 1.4413e-07 7.5403e-06 1.4413e-07
343   1.1639e-05 1.6022e-07 7.8567e-06 1.0437e-07
344   1.1610e-05 1.5520e-07 7.6731e-06 1.1544e-07
345   1.1586e-05 1.6719e-07 7.4823e-06 2.8023e-15
346   1.1573e-05 1.2516e-07 7.2849e-06 1.2516e-07
347   1.1541e-05 1.7392e-07 7.6144e-06 1.2161e-07
348   1.1523e-05 1.3454e-07 7.4249e-06 1.3454e-07
349   1.1506e-05 1.3781e-07 7.2291e-06 1.2441e-07
350   1.1472e-05 1.4362e-07 7.0278e-06 1.4362e-07
351   1.1458e-05 1.3873e-07 7.3683e-06 1.1541e-07
352   1.1439e-05 1.5238e-07 7.1740e-06 1.0322e-07
353   1.1403e-05 1.5255e-07 6.9744e-06 1.2809e-07
354   1.1393e-05 1.6084e-07 7.3124e-06 1.1098e-07
355   1.1372e-05 1.4034e-07 7.1196e-06 1.0732e-07
356   1.1334e-05 1.6901e-07 6.9216e-06 1.1848e-07
357   1.1328e-05 1.5217e-07 6.7191e-06 1.1821e-07
358   1.1304e-05 1.2572e-07 7.0659e-06 1.2572e-07
359   1.1271e-05 1.2873e-07 6.8695e-06 1.2873e-07
360   1.1262e-05 1.3272e-07 6.6687e-06 1.3272e-07
361   1.1236e-05 1.3889e-07 7.0128e-06 1.3889e-07
362   1.1208e-05 1.3948e-07 6.8180e-06 1.1738e-07
363   1.1196e-05 1.4869e-07 6.6190e-06 1.0591e-07
364   1.1168e-05 1.4600e-07 6.4164e-06 1.2520e-07
365   1.1144e-05 1.5815e-07 6.7672e-06 1.1469e-07
366   1.1130e-05 1.3939e-07 6.5698e-06 1.2149e-07
367   1.1100e-05 1.2317e-07 6.3690e-06 1.2317e-07
368   1.1080e-05 1.3419e-07 6.7169e-06 1.0752e-07
369   1.1064e-05 1.3135e-07 6.5212e-06 1.3135e-07
370   1.1032e-05 1.4643e-07 6.3222e-06 1.1891e-07
371   1.1017e-05 1.3925e-07 6.1205e-06 1.3925e-07
372   1.0998e-05 1.2991e-07 6.4732e-06 1.2991e-07
373   1.0964e-05 1.4686e-07 6.2759e-06 1.4686e-07
374   1.0953e-05 1.4052e-07 6.0760e-06 1.0467e-07
375   1.0933e-05 1.5419e-07 6.4257e-06 1.0275e-07
376   1.0897e-05 1.5075e-07 6.2301e-06 1.1425e-07
377   1.0890e-05 1.6124e-07 6.0320e-06 1.0940e-07
378   1.0868e-05 1.2349e-07 6.3788e-06 1.2349e-07
379   1.0837e-05 1.1582e-07 6.1849e-06 1.1093e-07
380   1.0828e-05 1.3240e-07 5.9885e-06 1.3240e-07
381   1.0803e-05 1.3592e-07 5.7905e-06 1.2385e-07
382   1.0777e-05 1.4099e-07 6.1402e-06 1.4099e-07
383   1.0765e-05 1.3632e-07 5.9455e-06 1.1558e-07
384   1.0739e-05 1.4926e-07 5.7492e-06 1.0480e-07
385   1.0717e-05 1.2683e-07 6.0960e-06 1.2683e-07
386   1.0704e-05 1.5722e-07 5.9030e-06 1.1234e-07
387   1.0676e-05 1.3768e-07 5.7085e-06 1.0848e-07
388   1.0658e-05 1.1961e-07 6.0523e-06 1.1961e-07
389   1.0643e-05 1.4814e-07 5.8610e-06 1.1833e-07
390   1.0613e-05 1.2660e-07 5.6682e-06 1.2660e-07
391   1.0599e-05 1.2781e-07 6.0091e-06 1.2781e-07
392   1.0582e-05 1.3333e-07 5.8194e-06 1.3333e-07
393   1.0551e-05 1.3696e-07 5.6283e-06 9.9887e-08
394   1.0541e-05 1.3979e-07 5.4362e-06 1.0879e-07
395   1.0522e-05 1.4576e-07 5.7783e-06 1.0824e-07
396   1.0490e-05 1.2798e-07 5.5889e-06 1.0730e-07
397   1.0483e-05 1.1628e-07 5.3985e-06 1.1628e-07
398   1.0463e-05 1.3361e-07 5.7377e-06 1.1871e-07
399   1.0434e-05 1.2403e-07 5.5499e-06 1.2403e-07
400   1.0427e-05 1.2972e-07 5.3612e-06 1.0717e-07
401   1.0405e-05 1.3148e-07 5.6975e-06 1.3148e-07
402   1.0380e-05 1.4034e-07 5.5113e-06 1.1716e-07
403   1.0371e-05 1.3864e-07 5.3243e-06 9.4343e-08
404   1.0347e-05 1.2680e-07 5.6578e-06 1.2680e-07
405   1.0327e-05 1.4553e-07 5.4732e-06 1.0096e-07
406   1.0316e-05 1.3608e-07 5.2878e-06 1.0557e-07
407   1.0291e-05 1.5214e-07 5.1021e-06 1.0732e-07
408   1.0274e-05 1.1405e-07 5.4354e-06 1.1405e-07
409   1.0261e-05 1.1344e-07 5.2516e-06 1.1344e-07
410   1.0235e-05 1.2222e-07 5.0676e-06 1.2222e-07
411   1.0222e-05 1.1931e-07 5.3981e-06 1.0582e-07
412   1.0207e-05 1.3008e-07 5.2159e-06 1.3008e-07
413   1.0179e-05 1.2666e-07 5.0335e-06 1.0067e-07
414   1.0170e-05 1.3765e-07 5.3612e-06 9.9998e-08
415   1.0154e-05 1.2779e-07 5.1805e-06 1.1080e-07
416   1.0125e-05 1.4492e-07 4.9997e-06 1.0696e-07
417   1.0120e-05 1.2058e-07 5.3247e-06 9.6838e-08
418   1.0102e-05 1.1366e-07 5.1456e-06 1.1366e-07
419   1.0076e-05 1.3002e-07 4.9663e-06 1.0575e-07
420   1.0070e-05 1.2010e-07 5.2886e-06 1.2010e-07
421   1.0050e-05 1.1434e-07 5.1110e-06 1.1434e-07
422   1.0028e-05 1.2629e-07 4.9332e-06 1.2629e-07
423   1.0020e-05 1.2262e-07 5.2529e-06 1.2262e-07
424   9.9995e-06 1.3223e-07 5.0767e-06 1.3223e-07
425   9.9809e-06 1.3061e-07 4.9005e-06 9.9456e-08
426   9.9715e-06 1.3792e-07 5.2175e-06 1.0041e-07
427   9.9494e-06 1.3829e-07 5.0428e-06 1.0677e-07
428   9.9344e-06 1.4338e-07 4.8681e-06 9.9985e-08
429   9.9235e-06 1.1382e-07 5.1825e-06 1.1382e-07
430   9.9000e-06 1.2208e-07 5.0093e-06 1.0995e-07
431   9.8886e-06 1.2059e-07 4.8360e-06 1.2059e-07
432   9.8762e-06 1.1958e-07 5.1479e-06 1.0099e-07
433   9.8512e-06 1.2711e-07 4.9761e-06 8.9812e-08
434   9.8434e-06 1.2888e-07 4.8043e-06 1.0973e-07
435   9.8294e-06 1.3338e-07 4.6329e-06 9.5841e-08
436   9.8031e-06 1.1817e-07 4.9433e-06 9.3163e-08
437   9.7988e-06 1.3940e-07 4.7729e-06 1.0164e-07
438   9.7833e-06 1.2631e-07 4.6029e-06 1.0087e-07
439   9.7596e-06 1.0720e-07 4.9108e-06 1.0720e-07
440   9.7548e-06 1.0829e-07 4.7418e-06 1.0829e-07
441   9.7378e-06 1.1254e-07 4.5732e-06 1.1254e-07
442   9.7176e-06 1.1545e-07 4.8786e-06 1.1545e-07
443   9.7113e-06 1.1767e-07 4.7110e-06 9.5863e-08
444   9.6929e-06 1.2235e-07 4.5438e-06 9.0948e-08
445   9.6762e-06 1.1378e-07 4.8468e-06 1.0573e-07
446   9.6683e-06 1.2900e-07 4.6805e-06 9.7286e-08
447   9.6486e-06 1.1529e-07 4.5147e-06 1.0114e-07
448   9.6353e-06 1.3539e-07 4.8152e-06 1.0339e-07
449   9.6259e-06 1.0979e-07 4.6503e-06 1.0979e-07
450   9.6048e-06 1.0926e-07 4.4859e-06 1.0926e-07
451   9.5948e-06 1.1814e-07 4.7840e-06 9.7818e-08
452   9.5840e-06 1.1490e-07 4.6205e-06 1.1490e-07
453   9.5615e-06 1.2622e-07 4.4574e-06 1.0541e-07
454   9.5548e-06 1.2032e-07 4.7531e-06 1.2032e-07
455   9.5425e-06 1.1274e-07 4.5909e-06 1.1274e-07
456   9.5187e-06 1.2553e-07 4.4291e-06 8.8431e-08
457   9.5153e-06 1.1982e-07 4.7225e-06 9.3544e-08
458   9.5016e-06 1.3052e-07 4.5616e-06 9.3260e-08
459   9.4799e-06 1.2665e-07 4.4012e-06 1.0001e-07
460   9.4761e-06 1.3532e-07 4.6922e-06 9.9288e-08
461   9.4610e-06 1.0624e-07 4.5326e-06 1.0624e-07
462   9.4427e-06 1.0884e-07 4.3734e-06 9.8416e-08
463   9.4374e-06 1.1224e-07 5.4301e-06 1.1224e-07
464   9.4209e-06 1.0704e-07 4.5038e-06 9.1237e-08
465   9.4058e-06 1.1802e-07 4.3460e-06 8.6315e-08
466   9.3991e-06 1.1539e-07 5.3995e-06 9.9051e-08
467   9.3813e-06 1.2358e-07 4.4754e-06 9.1631e-08
468   9.3693e-06 1.0661e-07 4.3188e-06 1.0661e-07
469   9.3612e-06 1.2893e-07 5.3691e-06 9.6745e-08
470   9.3420e-06 1.1392e-07 4.4472e-06 9.2217e-08
471   9.3332e-06 1.0166e-07 4.2918e-06 1.0166e-07
472   9.3236e-06 1.2099e-07 5.3390e-06 9.8863e-08
473   9.3032e-06 1.0639e-07 4.4192e-06 1.0639e-07
474   9.2973e-06 1.0528e-07 4.2651e-06 1.0528e-07
475   9.2864e-06 1.1092e-07 5.3091e-06 9.1616e-08
476   9.2647e-06 1.1148e-07 4.3916e-06 8.4606e-08
477   9.2618e-06 1.1528e-07 4.2386e-06 1.1528e-07
478   9.2495e-06 1.3154e-07 5.2795e-06 8.9903e-08
479   9.2296e-06 1.3497e-07 4.3641e-06 8.8942e-08
480   9.2266e-06 1.2717e-07 4.2124e-06 7.7459e-08
481   9.2129e-06 1.0973e-07 5.2501e-06 1.0973e-07
482   9.1961e-06 1.3726e-07 4.3370e-06 8.4191e-08
483   9.1917e-06 1.0712e-07 4.1864e-06 1.0712e-07
484   9.1767e-06 1.2605e-07 5.2210e-06 1.2605e-07
485   9.1629e-06 8.6782e-08 4.3101e-06 8.6782e-08
486   9.1570e-06 9.9125e-08 4.1607e-06 9.9125e-08
487   9.1408e-06 1.0846e-07 5.1922e-06 1.0846e-07
488   9.1299e-06 1.1505e-07 4.2834e-06 1.1505e-07
489   9.1226e-06 1.1915e-07 4.1352e-06 1.1915e-07
490   9.1051e-06 1.2104e-07 5.1636e-06 6.9782e-08
491   9.0971e-06 1.2095e-07 4.2570e-06 7.0965e-08
492   9.0885e-06 1.1913e-07 4.1099e-06 7.0480e-08
493   9.0698e-06 1.1581e-07 5.1352e-06 6.8542e-08
494   9.0646e-06 1.1120e-07 4.2308e-06 1.1120e-07
495   9.0547e-06 1.0552e-07 4.0848e-06 1.0552e-07
496   9.0347e-06 9.8953e-08 5.1071e-06 9.8953e-08
497   9.0323e-06 9.1676e-08 4.2048e-06 9.1676e-08
498   9.0211e-06 8.3851e-08 4.0599e-06 8.3851e-08
499   9.0027e-06 1.1423e-07 5.0791e-06 7.5627e-08
500   9.0002e-06 1.0443e-07 4.1791e-06 6.7137e-08
501   8.9877e-06 9.4511e-08 4.0353e-06 9.4511e-08
502   8.9722e-06 8.4585e-08 5.0515e-06 8.4585e-08
503   8.9683e-06 1.0864e-07 4.1536e-06 7.4749e-08
504   8.9546e-06 9.7871e-08 5.1900e-06 6.5086e-08
505   8.9418e-06 8.7382e-08 5.0240e-06 8.7382e-08
506   8.9366e-06 7.7239e-08 4.1283e-06 7.7239e-08
507   8.9217e-06 9.7852e-08 5.1617e-06 6.7494e-08
508   8.9117e-06 8.7638e-08 4.9967e-06 8.7638e-08
509   8.9052e-06 7.7935e-08 4.1032e-06 7.7935e-08
510   8.8890e-06 9.7389e-08 5.1336e-06 6.8765e-08
511   8.8817e-06 8.8003e-08 4.9697e-06 8.8003e-08
512   8.8739e-06 7.9209e-08 4.0784e-06 7.9209e-08
513   8.8566e-06 9.8450e-08 5.1057e-06 7.1011e-08
514   8.8518e-06 9.0184e-08 4.1929e-06 6.3402e-08
515   8.8428e-06 8.2529e-08 4.0537e-06 8.2529e-08
516   8.8243e-06 7.5470e-08 5.0780e-06 7.5470e-08
517   8.8222e-06 9.5024e-08 4.1674e-06 6.8989e-08
518   8.8119e-06 8.8530e-08 4.0293e-06 6.3063e-08
519   8.7947e-06 8.2587e-08 5.0506e-06 8.2587e-08
520   8.7926e-06 7.7167e-08 4.1422e-06 7.7167e-08
521   8.7812e-06 7.2241e-08 5.1831e-06 7.2241e-08
522   8.7667e-06 9.2064e-08 5.0234e-06 6.7779e-08
523   8.7633e-06 8.7496e-08 4.1172e-06 6.3751e-08
524   8.7506e-06 8.3337e-08 5.1551e-06 8.3337e-08
525   8.7387e-06 7.9553e-08 4.9963e-06 7.9553e-08
526   8.7341e-06 7.6112e-08 4.0924e-06 7.6112e-08
527   8.7203e-06 7.2983e-08 5.1273e-06 7.2983e-08
528   8.7109e-06 9.1786e-08 4.9695e-06 7.0134e-08
529   8.7050e-06 8.8602e-08 4.0678e-06 6.7537e-08
530   8.6901e-06 8.5639e-08 5.0997e-06 6.5162e-08
531   8.6832e-06 8.2871e-08 4.1771e-06 6.2982e-08
532   8.6761e-06 8.0272e-08 4.0434e-06 6.0973e-08
533   8.6600e-06 7.7816e-08 5.0723e-06 7.7816e-08
534   8.6556e-06 7.5483e-08 4.1520e-06 7.5483e-08
535   8.6474e-06 7.3252e-08 5.1998e-06 7.3252e-08
536   8.6301e-06 8.7930e-08 5.0451e-06 7.1103e-08
537   8.6282e-06 8.5199e-08 4.1271e-06 6.9021e-08
538   8.6187e-06 8.2524e-08 5.1719e-06 6.6991e-08
539   8.6026e-06 7.9894e-08 5.0181e-06 6.4998e-08
540   8.6009e-06 7.7297e-08 4.1024e-06 6.3032e-08
541   8.5902e-06 7.4725e-08 5.1442e-06 6.1083e-08
542   8.5766e-06 7.2171e-08 4.9914e-06 7.2171e-08
543   8.5736e-06 8.1580e-08 5.2683e-06 6.9629e-08
544   8.5619e-06 7.8438e-08 5.1167e-06 6.7096e-08
545   8.5507e-06 7.5318e-08 4.1829e-06 6.4568e-08
546   8.5465e-06 7.2221e-08 5.2401e-06 6.2043e-08
547   8.5337e-06 7.8242e-08 5.0894e-06 5.9522e-08
548   8.5249e-06 7.4666e-08 4.1580e-06 6.6096e-08
549   8.5196e-06 7.1141e-08 5.2121e-06 6.3071e-08
550   8.5056e-06 7.4810e-08 5.0623e-06 6.0075e-08
551   8.4992e-06 7.0970e-08 5.3327e-06 6.4256e-08
552   8.4927e-06 7.3200e-08 5.1844e-06 6.0902e-08
553   8.4777e-06 7.4628e-08 4.2354e-06 6.3557e-08
554   8.4736e-06 7.0471e-08 5.3043e-06 5.9991e-08
555   8.4659e-06 7.1314e-08 5.1568e-06 6.1567e-08
556   8.4498e-06 7.1999e-08 4.2102e-06 5.7942e-08
557   8.4480e-06 7.2768e-08 5.2761e-06 5.8911e-08
558   8.4393e-06 6.8838e-08 4.3102e-06 5.9692e-08
559   8.4241e-06 7.0030e-08 5.3931e-06 6.0522e-08
560   8.4226e-06 7.1698e-08 5.2481e-06 5.7081e-08
561   8.4127e-06 6.8291e-08 4.2846e-06 5.8288e-08
562   8.3999e-06 7.0723e-08 5.3645e-06 5.9936e-08
563   8.3972e-06 6.7719e-08 5.2203e-06 5.6989e-08
564   8.3863e-06 7.0982e-08 5.4784e-06 5.9363e-08
565   8.3758e-06 6.8381e-08 5.3362e-06 5.6805e-08
566   8.3720e-06 7.2488e-08 4.3562e-06 5.9986e-08
567   8.3600e-06 7.0279e-08 5.4495e-06 5.7822e-08
568   8.3517e-06 6.8279e-08 5.3080e-06 6.1835e-08
569   8.3468e-06 6.6487e-08 5.5603e-06 6.0066e-08
570   8.3337e-06 6.4903e-08 5.4209e-06 5.8502e-08
571   8.3277e-06 7.0362e-08 5.6683e-06 5.7145e-08
572   8.3217e-06 6.9170e-08 5.5311e-06 6.2363e-08
573   8.3076e-06 6.8195e-08 5.3924e-06 6.1413e-08
574   8.3038e-06 6.7442e-08 5.6386e-06 6.0683e-08
575   8.2967e-06 6.6917e-08 5.5022e-06 6.0179e-08
576   8.2816e-06 6.6627e-08 5.7432e-06 5.9908e-08
577   8.2799e-06 6.6582e-08 5.6092e-06 5.9878e-08
578   8.2718e-06 6.6793e-08 5.8446e-06 6.0102e-08
579   8.2574e-06 6.7272e-08 5.7134e-06 6.0590e-08
580   8.2561e-06 6.8033e-08 5.5800e-06 6.1356e-08
581   8.2469e-06 6.9091e-08 5.8145e-06 6.2416e-08
582   8.2348e-06 6.3787e-08 5.6838e-06 6.3787e-08
583   8.2324e-06 6.5487e-08 5.9123e-06 6.5487e-08
584   8.2222e-06 6.7538e-08 5.7845e-06 6.7538e-08
585   8.2122e-06 6.9962e-08 6.0067e-06 6.9962e-08
586   8.2088e-06 6.6375e-08 5.8821e-06 7.2784e-08
587   8.1975e-06 -7.1239e-08 5.7548e-06 7.6029e-08
588   8.1897e-06 -6.8244e-08 5.9762e-06 7.9729e-08
589   8.1852e-06 -6.5178e-08 5.8520e-06 8.3913e-08
590   8.1729e-06 -6.2031e-08 6.0669e-06 8.2032e-08
591   8.1672e-06 -5.8793e-08 5.9459e-06 8.7227e-08
592   8.1616e-06 -5.5453e-08 6.1539e-06 9.3005e-08
593   8.1484e-06 -5.1997e-08 6.0364e-06 9.2902e-08
594   8.1448e-06 -4.8413e-08 5.9158e-06 -4.8413e-08
595   8.1382e-06 -4.4686e-08 6.1232e-06 -4.4686e-08
596   8.1240e-06 -4.0802e-08 6.0061e-06 -4.0802e-08
597   8.1224e-06 -3.6744e-08 6.2063e-06 -3.6744e-08
598   8.1148e-06 -3.2495e-08 6.0927e-06 -3.2495e-08
599   8.1012e-06 -2.8038e-08 6.2855e-06 -2.8038e-08
600   8.1001e-06 -2.3354e-08 6.1757e-06 -2.3354e-08
601   8.0915e-06 -1.8422e-08 6.3607e-06 -1.8422e-08
602   8.0800e-06 -1.3223e-08 6.2549e-06 -1.3223e-08
603   8.0778e-06 -7.7348e-09 6.4319e-06 -7.7348e-09
604   8.0682e-06 -1.9338e-09 6.3301e-06 -1.9338e-09
605   8.0588e-06 4.2034e-09 6.4988e-06 4.2034e-09
606   8.0556e-06 1.0702e-08 6.4013e-06 1.0702e-08
607   8.0450e-06 1.7586e-08 6.5614e-06 1.7586e-08
608   8.0376e-06 2.4884e-08 6.4683e-06 2.4884e-08
609   8.0334e-06 3.2623e-08 6.6197e-06 3.2623e-08
610   8.0219e-06 4.0830e-08 6.5311e-06 4.0830e-08
611   8.0165e-06 4.9536e-08 6.6735e-06 4.9536e-08
612   8.0113e-06 5.8770e-08 6.5895e-06 5.8770e-08
613   7.9989e-06 6.8563e-08 6.7228e-06 6.8563e-08
614   7.9954e-06 7.8946e-08 6.8368e-06 7.8946e-08
615   7.9892e-06 8.9950e-08 6.7676e-06 8.9950e-08
616   7.9759e-06 1.0161e-07 6.8719e-06 1.0161e-07
617   7.9744e-06 1.1395e-07 6.8078e-06 1.1395e-07
618   7.9672e-06 1.2702e-07 6.9023e-06 1.2702e-07
619   7.9543e-06 1.4084e-07 6.9761e-06 1.4084e-07
620   7.9533e-06 1.5544e-07 6.9280e-06 1.5544e-07
621   7.9452e-06 1.7086e-07 6.9917e-06 1.7086e-07
622   7.9343e-06 1.8714e-07 6.8149e-06 1.8714e-07
623   7.9324e-06 2.0430e-07 6.9004e-06 2.0430e-07
624   7.9233e-06 2.2238e-07 6.8462e-06 2.2238e-07
625   7.9144e-06 2.4140e-07 6.9220e-06 2.4140e-07
626   7.9114e-06 2.6140e-07 6.9769e-06 2.6140e-07
627   7.9015e-06 2.8242e-07 7.0105e-06 2.8242e-07
628   7.8944e-06 3.0447e-07 6.9838e-06 3.0447e-07
629   7.8905e-06 3.2758e-07 7.0075e-06 3.2758e-07
630   7.8796e-06 3.5179e-07 6.9862e-06 3.5179e-07
631   7.8745e-06 3.7711e-07 6.9909e-06 3.7711e-07
632   7.8696e-06 4.0356e-07 6.9511e-06 4.0356e-07
633   7.8579e-06 4.3118e-07 -4.5066e-06 4.3118e-07
634   7.8546e-06 4.5997e-07 -4.6217e-06 4.5997e-07
635   7.8488e-06 4.8995e-07 -4.6005e-06 4.8995e-07
636   7.8362e-06 5.2114e-07 -4.5779e-06 5.2114e-07
637   7.8347e-06 5.5355e-07 -4.5539e-06 5.5355e-07
638   7.8280e-06 5.8718e-07 -4.5286e-06 5.8718e-07
639   7.8157e-06 6.2204e-07 -4.4839e-06 6.2204e-07
640   7.8149e-06 6.5813e-07 -4.4566e-06 6.5813e-07
641   7.8072e-06 6.9544e-07 -4.5720e-06 6.9544e-07
642   7.7968e-06 7.3398e-07 -4.5508e-06 7.3398e-07
643   7.7950e-06 7.7374e-07 -4.5282e-06 7.7374e-07
644   7.7865e-06 8.1469e-07 -4.5042e-06 8.1469e-07
645   7.7780e-06 8.5683e-07 -4.4789e-06 8.5683e-07
646   7.7752e-06 9.0013e-07 -4.4345e-06 9.0013e-07
647   7.7658e-06 9.4458e-07 -4.5428e-06 9.4458e-07
648   7.7591e-06 9.9013e-07 -4.5230e-06 9.9013e-07
649   7.7555e-06 1.0368e-06 -4.5017e-06 1.0368e-06
650   7.7452e-06 1.0844e-06 -4.4791e-06 1.0844e-06
651   7.7403e-06 1.1331e-06 -4.4552e-06 1.1331e-06
652   7.7357e-06 1.1827e-06 -4.4300e-06 1.1827e-06
653   7.7246e-06 1.2332e-06 -4.3858e-06 1.2332e-06
654   7.7215e-06 1.2846e-06 -4.4945e-06 1.2846e-06
655   7.7160e-06 1.3368e-06 -4.4746e-06 1.3368e-06
656   7.7040e-06 1.3896e-06 -4.4533e-06 1.3896e-06
657   7.7027e-06 1.4432e-06 -4.4307e-06 1.4432e-06
658   7.6963e-06 1.4973e-06 -4.4069e-06 1.4973e-06
659   7.6846e-06 1.5520e-06 -4.3817e-06 1.5520e-06
660   7.6839e-06 1.6071e-06 -4.3378e-06 1.6071e-06
661   7.6767e-06 1.6625e-06 -4.4468e-06 1.6625e-06
662   7.6667e-06 1.7182e-06 -4.4268e-06 1.7182e-06
663   7.6651e-06 1.7741e-06 -4.4055e-06 1.7741e-06
664   7.6570e-06 1.8301e-06 -4.3830e-06 1.8301e-06
665   7.6489e-06 1.8861e-06 -4.3592e-06 1.8861e-06
666   7.6463e-06 1.9420e-06 -4.3161e-06 1.9420e-06
667   7.6374e-06 1.9977e-06 -4.4183e-06 1.9977e-06
668   7.6310e-06 2.0531e-06 -4.3996e-06 2.0531e-06
669   7.6276e-06 2.1081e-06 -4.3797e-06 2.1081e-06
670   7.6178e-06 2.1627e-06 -4.3584e-06 2.1627e-06
671   7.6131e-06 2.2166e-06 -4.3359e-06 2.2166e-06
672   7.6088e-06 2.2698e-06 -4.3121e-06 2.2698e-06
673   7.5983e-06 2.3222e-06 -4.2692e-06 2.3222e-06
674   7.5953e-06 2.3738e-06 -4.3718e-06 2.3738e-06
675   7.5901e-06 2.4243e-06 -4.3531e-06 2.4243e-06
676   7.5788e-06 2.4737e-06 -4.3331e-06 2.4737e-06
677   7.5774e-06 2.5219e-06 -4.3118e-06 2.5219e-06
678   7.5714e-06 2.5688e-06 -4.2893e-06 2.5688e-06
679   7.5602e-06 2.6142e-06 -4.2656e-06 2.6142e-06
680   7.5596e-06 2.6582e-06 -4.2407e-06 2.6582e-06
681   7.5528e-06 2.7006e-06 -4.3259e-06 2.7006e-06
682   7.5433e-06 2.7413e-06 -4.3072e-06 2.7413e-06
683   7.5418e-06 2.7803e-06 -4.2871e-06 2.7803e-06
684   7.5341e-06 2.8174e-06 -4.2658e-06 2.8174e-06
685   7.5263e-06 2.8525e-06 -4.2434e-06 2.8525e-06
686   7.5239e-06 2.8857e-06 -4.2197e-06 2.8857e-06
687   7.5155e-06 2.9168e-06 -4.1950e-06 2.9168e-06
688   7.5093e-06 2.9458e-06 -4.1520e-06 2.9458e-06
689   7.5061e-06 2.9725e-06 -4.2617e-06 2.9725e-06
690   7.4969e-06 2.9971e-06 -4.2417e-06 2.9971e-06
691   7.4924e-06 3.0193e-06 -4.2204e-06 3.0193e-06
692   7.4883e-06 3.0392e-06 -4.1980e-06 3.0392e-06
693   7.4783e-06 3.0567e-06 -4.1744e-06 3.0567e-06
694   7.4623e-06 3.0717e-06 -4.1497e-06 3.0717e-06
695   7.4405e-06 3.0844e-06 -4.1070e-06 3.0844e-06
696   7.4128e-06 3.0946e-06 -4.2169e-06 3.0946e-06
697   7.3820e-06 3.1023e-06 -4.1968e-06 3.1023e-06
698   7.3561e-06 3.1075e-06 -4.1756e-06 3.1075e-06
699   7.3335e-06 3.1102e-06 -4.1532e-06 3.1102e-06
700   7.3140e-06 3.1104e-06 -4.1297e-06 3.1104e-06
701   7.2979e-06 3.1081e-06 -4.1051e-06 3.1081e-06
702   7.2846e-06 3.1034e-06 -4.0794e-06 3.1034e-06
703   7.2681e-06 3.0962e-06 -4.1725e-06 3.0962e-06
704   7.2464e-06 3.0866e-06 -4.1525e-06 3.0866e-06
705   7.2192e-06 3.0746e-06 -4.1312e-06 3.0746e-06
706   7.1877e-06 3.0602e-06 -4.1089e-06 3.0602e-06
707   7.1508e-06 3.0435e-06 -4.0855e-06 3.0435e-06
708   7.1086e-06 3.0245e-06 -4.0610e-06 3.0245e-06
709   7.0613e-06 3.0034e-06 -4.0354e-06 3.0034e-06
710   7.0088e-06 2.9800e-06 -3.9926e-06 2.9800e-06
711   6.9515e-06 2.9545e-06 -4.1086e-06 2.9545e-06
712   6.8893e-06 2.9270e-06 -4.0874e-06 2.9270e-06
713   6.8225e-06 2.8976e-06 -4.0652e-06 2.8976e-06
714   6.7513e-06 2.8662e-06 -4.0418e-06 2.8662e-06
715   6.6757e-06 2.8330e-06 -4.0174e-06 2.8330e-06
716   6.5964e-06 2.7980e-06 -3.9920e-06 2.7980e-06
717   6.5138e-06 2.7613e-06 -3.9656e-06 2.7613e-06
718   6.4274e-06 2.7231e-06 -4.0653e-06 2.7231e-06
719   6.3374e-06 2.6834e-06 -4.0442e-06 2.6834e-06
720   6.2441e-06 2.6422e-06 -4.0219e-06 2.6422e-06
721   6.1475e-06 2.5997e-06 -3.9987e-06 2.5997e-06
722   6.0480e-06 2.5559e-06 -3.9744e-06 2.5559e-06
723   5.9457e-06 2.5110e-06 -3.9491e-06 2.5110e-06
724   5.8408e-06 2.4651e-06 -3.9228e-06 2.4651e-06
725   5.7336e-06 2.4181e-06 -3.8956e-06 2.4181e-06
726   5.6242e-06 2.3703e-06 -4.0014e-06 2.3703e-06
727   5.5128e-06 2.3217e-06 -3.9792e-06 2.3217e-06
728   5.3998e-06 2.2723e-06 -3.9560e-06 2.2723e-06
729   5.2852e-06 2.2224e-06 -3.9318e-06 2.2224e-06
730   5.1693e-06 2.1719e-06 -3.9067e-06 2.1719e-06
731   5.0523e-06 2.1210e-06 -3.8806e-06 2.1210e-06
732   4.9344e-06 2.0698e-06 -3.8535e-06 2.0698e-06
733   4.8157e-06 2.0182e-06 -3.8256e-06 2.0182e-06
734   4.6965e-06 1.9665e-06 -3.9370e-06 1.9665e-06
735   4.5770e-06 1.9147e-06 -3.9139e-06 1.9147e-06
736   4.4574e-06 1.8628e-06 -3.8898e-06 1.8628e-06
737   4.3377e-06 1.8110e-06 -3.8648e-06 1.8110e-06
738   4.2183e-06 1.7594e-06 -3.8388e-06 1.7594e-06
739   4.0992e-06 1.7079e-06 -3.8120e-06 1.7079e-06
740   3.9807e-06 1.6566e-06 -3.7843e-06 1.6566e-06
741   3.8628e-06 1.6057e-06 -3.7557e-06 1.6057e-06
742   3.7458e-06 1.5552e-06 -3.8723e-06 1.5552e-06
743   3.6297e-06 1.5051e-06 -3.8483e-06 1.5051e-06
744   3.5148e-06 1.4556e-06 -3.8234e-06 1.4556e-06
745   3.4010e-06 1.4065e-06 -3.7976e-06 1.4065e-06
746   3.2886e-06 1.3581e-06 -3.7709e-06 1.3581e-06
747   3.1777e-06 1.3104e-06 -3.7434e-06 1.3104e-06
748   3.0683e-06 1.2633e-06 -3.7151e-06 1.2633e-06
749   2.9606e-06 1.2169e-06 -3.6859e-06 1.2169e-06
750   2.8546e-06 1.1714e-06 -3.8073e-06 1.1714e-06
751   2.7504e-06 1.1266e-06 -3.7825e-06 1.1266e-06
752   2.6482e-06 1.0827e-06 -3.7569e-06 1.0827e-06
753   2.5480e-06 1.0396e-06 -3.7304e-06 1.0396e-06
754   2.4497e-06 9.9748e-07 -3.7030e-06 9.9748e-07
755   2.3536e-06 9.5623e-07 -3.6749e-06 9.5623e-07
756   2.2596e-06 9.1591e-07 -3.6460e-06 9.1591e-07
757   2.1678e-06 8.7653e-07 -3.6164e-06 8.7653e-07
758   2.0782e-06 8.3812e-07 -3.5860e-06 8.3812e-07
759   1.9908e-06 8.0068e-07 -3.7166e-06 8.0068e-07
760   1.9057e-06 7.6422e-07 -3.6903e-06 7.6422e-07
761   1.8229e-06 7.2874e-07 -3.6632e-06 7.2874e-07
762   1.7424e-06 6.9426e-07 -3.6353e-06 6.9426e-07
763   1.6642e-06 6.6077e-07 -3.6066e-06 6.6077e-07
764   1.5883e-06 6.2827e-07 -3.5772e-06 6.2827e-07
765   1.5147e-06 5.9676e-07 -3.5471e-06 5.9676e-07
766   1.4434e-06 5.6623e-07 -3.5163e-06 5.6623e-07
767   1.3743e-06 5.3668e-07 -3.6507e-06 5.3668e-07
768   1.3075e-06 5.0810e-07 -3.6238e-06 5.0810e-07
769   1.2430e-06 4.8048e-07 -3.5961e-06 4.8048e-07
770   1.1806e-06 4.5381e-07 -3.5676e-06 4.5381e-07
771   1.1205e-06 4.2808e-07 -3.5385e-06 4.2808e-07
772   1.0625e-06 4.0327e-07 -3.5086e-06 4.0327e-07
773   1.0113e-06 3.7936e-07 -3.4781e-06 3.7936e-07
774   1.0107e-06 3.5635e-07 -3.4470e-06 3.5635e-07
775   1.0098e-06 3.3422e-07 -3.4152e-06 3.3422e-07
776   1.0085e-06 3.1294e-07 -3.5574e-06 3.1294e-07
777   1.0068e-06 2.9250e-07 -3.5292e-06 2.9250e-07
778   1.0047e-06 2.7287e-07 -3.5002e-06 5.3102e-07
779   1.0021e-06 2.5405e-07 -3.4707e-06 4.9877e-07
780   1.0017e-06 2.3601e-07 -3.4404e-06 4.6786e-07
781   1.0010e-06 2.1873e-07 -3.4096e-06 4.3826e-07
782   9.9984e-07 2.0219e-07 -3.3781e-06 4.0993e-07
783   9.9832e-07 1.8636e-07 -3.3461e-06 3.8284e-07
784   9.9641e-07 1.7123e-07 -3.3136e-06 3.5695e-07
785   9.9408e-07 1.5677e-07 -3.4625e-06 3.3223e-07
786   9.9259e-07 1.4297e-07 -3.4332e-06 3.0864e-07
787   9.9204e-07 1.2979e-07 -3.4032e-06 2.8614e-07
788   9.9111e-07 1.1723e-07 -3.3726e-06 2.6469e-07
789   9.8980e-07 1.0525e-07 -3.3415e-06 3.2329e-07
790   9.8808e-07 9.3847e-08 -3.3098e-06 2.9933e-07
791   9.8596e-07 2.0632e-07 -3.2776e-06 2.7653e-07
792   9.8347e-07 1.8873e-07 -3.2449e-06 2.5487e-07
793   9.8309e-07 1.7202e-07 -3.3961e-06 2.3428e-07
794   9.8235e-07 1.5615e-07 -3.3664e-06 2.1473e-07
795   9.8122e-07 1.4109e-07 -3.3362e-06 1.9619e-07
796   9.7970e-07 1.2681e-07 -3.3053e-06 1.7860e-07
797   9.7778e-07 1.1326e-07 -3.2739e-06 1.6192e-07
798   9.7545e-07 1.0043e-07 -3.2421e-06 1.6607e-07
799   9.7411e-07 8.8278e-08 -3.2097e-06 1.4991e-07
800   9.7354e-07 7.6775e-08 -3.1768e-06 1.3461e-07
801   9.7260e-07 1.0364e-07 -3.1435e-06 1.2015e-07
802   9.7127e-07 9.0988e-08 -3.3001e-06 1.0648e-07
803   9.6955e-07 7.9035e-08 -3.2696e-06 9.3561e-08
804   9.6743e-07 6.7746e-08 -3.2385e-06 8.5513e-08
805   9.6510e-07 5.7090e-08 -3.2069e-06 7.3764e-08
806   9.6471e-07 4.7036e-08 -3.1749e-06 6.2682e-08
807   9.6395e-07 3.7554e-08 -3.1424e-06 5.2233e-08
808   9.6280e-07 2.8615e-08 -3.1095e-06 4.2565e-08
809   9.6127e-07 2.0190e-08 -3.0761e-06 3.1428e-08
810   9.5935e-07 1.2254e-08 -3.0424e-06 1.7900e-08
811   9.5701e-07 1.3386e-08 -3.0083e-06 1.1255e-08
812   9.5585e-07 5.7978e-09 -3.1723e-06 5.8149e-09
813   9.5526e-07 -1.3415e-09 -3.1406e-06 7.8792e-10
814   9.5430e-07 -8.0567e-09 -3.1084e-06 -2.7549e-09
815   9.5296e-07 -1.4371e-08 -3.0758e-06 -6.4405e-09
816   9.5122e-07 -2.0307e-08 -3.0428e-06 -1.0795e-08
817   9.4909e-07 -2.5887e-08 -3.0095e-06 -1.3619e-08
818   9.4698e-07 -2.9218e-08 -2.9758e-06 -1.5983e-08
819   9.4656e-07 -3.4235e-08 -2.9418e-06 -1.9453e-08
820   9.4577e-07 -3.8947e-08 -2.9074e-06 -2.1118e-08
821   9.4461e-07 -4.3373e-08 -3.0748e-06 -2.4119e-08
822   9.4306e-07 -4.6959e-08 -3.0426e-06 -2.5174e-08
823   9.4112e-07 -5.0841e-08 -3.0100e-06 -2.7772e-08
824   9.3877e-07 -5.3405e-08 -2.9770e-06 -2.8297e-08
825   9.3783e-07 -5.3309e-08 -2.9437e-06 -3.0550e-08
826   9.3721e-07 -5.3039e-08 -2.9100e-06 -3.2667e-08
827   9.3623e-07 -5.4310e-08 -2.8761e-06 -3.2573e-08
828   9.3486e-07 -5.3912e-08 -2.8419e-06 -3.4417e-08
829   9.3311e-07 -5.4508e-08 -2.8074e-06 -3.6153e-08
830   9.3096e-07 -5.6421e-08 -2.9775e-06 -3.7790e-08
831   9.2910e-07 -5.6624e-08 -2.9449e-06 -3.9334e-08
832   9.2864e-07 -5.6605e-08 -2.9119e-06 -3.8520e-08
833   9.2782e-07 -5.8154e-08 -2.8787e-06 -3.9880e-08
834   9.2664e-07 -5.7820e-08 -2.8451e-06 -4.1168e-08
835   9.2507e-07 -5.9183e-08 -2.8113e-06 -4.2390e-08
836   9.2311e-07 -5.8576e-08 -2.7773e-06 -4.3550e-08
837   9.2075e-07 -5.9782e-08 -2.7430e-06 -4.4654e-08
838   9.2006e-07 -6.0927e-08 -2.7085e-06 -4.5706e-08
839   9.1941e-07 -6.2015e-08 -2.8805e-06 -4.4270e-08
840   9.1839e-07 -6.1038e-08 -2.8477e-06 -4.5219e-08
841   9.1700e-07 -6.2015e-08 -2.8145e-06 -4.6129e-08
842   9.1522e-07 -6.2950e-08 -2.7811e-06 -4.7003e-08
843   9.1305e-07 -6.3845e-08 -2.7474e-06 -4.7843e-08
844   9.1147e-07 -6.4704e-08 -2.7136e-06 -4.8652e-08
845   9.1097e-07 -6.5530e-08 -2.6795e-06 -4.9433e-08
846   9.1012e-07 -6.4199e-08 -2.6453e-06 -5.0189e-08
847   9.0890e-07 -6.4960e-08 -2.6109e-06 -5.0922e-08
848   9.0731e-07 -6.5697e-08 -2.5763e-06 -5.1633e-08
849   9.0532e-07 -6.6411e-08 -2.7512e-06 -5.2325e-08
850   9.0295e-07 -6.7104e-08 -2.7180e-06 -5.3000e-08
851   9.0254e-07 -6.7778e-08 -2.6845e-06 -5.3659e-08
852   9.0185e-07 -6.8435e-08 -2.6509e-06 -5.4304e-08
853   9.0079e-07 -6.9077e-08 -2.6170e-06 -5.2366e-08
854   8.9937e-07 -6.9704e-08 -2.5830e-06 -5.2986e-08
855   8.9757e-07 -7.0319e-08 -2.5489e-06 -5.3595e-08
856   8.9538e-07 -7.0922e-08 -2.5147e-06 -5.4195e-08
857   8.9409e-07 -7.1516e-08 -2.4804e-06 -5.4787e-08
858   8.9356e-07 -7.2100e-08 -2.4394e-06 -5.5372e-08
859   8.9267e-07 -7.2676e-08 -2.6225e-06 -5.5951e-08
860   8.9141e-07 -7.3244e-08 -2.5891e-06 -5.6525e-08
861   8.8979e-07 -7.3806e-08 -2.5555e-06 -5.7093e-08
862   8.8778e-07 -7.4362e-08 -2.5218e-06 -5.7658e-08
863   8.8565e-07 -7.4913e-08 -2.4880e-06 -5.8218e-08
864   8.8527e-07 -7.5460e-08 -2.4541e-06 -5.8776e-08
865   8.8454e-07 -7.6003e-08 -2.4202e-06 -5.9331e-08
866   8.8345e-07 -7.6543e-08 -2.3862e-06 -5.9885e-08
867   8.8199e-07 -7.7080e-08 -2.3521e-06 -6.0436e-08
868   8.8015e-07 -7.7614e-08 -2.5283e-06 -6.0986e-08
869   8.7794e-07 -7.8147e-08 -2.4951e-06 -6.1535e-08
870   8.7698e-07 -7.8678e-08 -2.4617e-06 -6.2083e-08
871   8.7640e-07 -7.9208e-08 -2.4282e-06 -6.2631e-08
872   8.7547e-07 -7.9737e-08 -2.3946e-06 -6.3179e-08
873   8.7418e-07 -8.0266e-08 -2.3610e-06 -6.3727e-08
874   8.7251e-07 -8.0794e-08 -2.3274e-06 -6.4275e-08
875   8.7047e-07 -8.1323e-08 -2.2938e-06 -6.4824e-08
876   8.6870e-07 -8.1851e-08 -2.2601e-06 -6.5373e-08
877   8.6827e-07 -8.2380e-08 -2.2265e-06 -6.5923e-08
878   8.6749e-07 -8.2909e-08 -2.4025e-06 -6.3889e-08
879   8.6635e-07 -8.3439e-08 -2.3694e-06 -6.4444e-08
880   8.6486e-07 -8.3970e-08 -2.3362e-06 -6.5001e-08
881   8.6299e-07 -8.6618e-08 -2.3030e-06 -6.5558e-08
882   8.6074e-07 -8.7147e-08 -2.2698e-06 -6.6117e-08
883   8.6013e-07 -8.7678e-08 -2.2365e-06 -6.6678e-08
884   8.5951e-07 -8.8210e-08 -2.2033e-06 -6.7239e-08
885   8.5853e-07 -8.8743e-08 -2.1702e-06 -6.7803e-08
886   8.5719e-07 -8.9278e-08 -2.1370e-06 -6.8368e-08
887   8.5549e-07 -8.9813e-08 -2.0988e-06 -6.8934e-08
888   8.5342e-07 -9.0351e-08 -2.2788e-06 -6.9502e-08
889   8.5201e-07 -9.0890e-08 -2.2460e-06 -7.0072e-08
890   8.5152e-07 -9.1431e-08 -2.2132e-06 -7.0643e-08
891   8.5070e-07 -9.1973e-08 -2.1804e-06 -7.1216e-08
892   8.4952e-07 -9.2517e-08 -2.1477e-06 -7.1791e-08
893   8.4798e-07 -9.3063e-08 -2.1150e-06 -7.2367e-08
894   8.4607e-07 -9.3611e-08 -2.0823e-06 -7.2945e-08
895   8.4389e-07 -9.4160e-08 -2.0497e-06 -7.3525e-08
896   8.4355e-07 -9.4711e-08 -2.0173e-06 -7.4106e-08
897   8.4287e-07 -9.7277e-08 -2.1901e-06 -7.4688e-08
898   8.4184e-07 -9.7828e-08 -2.1578e-06 -7.2693e-08
899   8.4046e-07 -9.8381e-08 -2.1254e-06 -7.3282e-08
900   8.3872e-07 -9.8936e-08 -2.0931e-06 -7.3873e-08
901   8.3661e-07 -9.9493e-08 -2.0609e-06 -7.4466e-08
902   8.3559e-07 -1.0005e-07 -2.0287e-06 -7.5060e-08
903   8.3504e-07 -1.0061e-07 -1.9966e-06 -7.5655e-08
904   8.3416e-07 -1.0117e-07 -1.9647e-06 -7.6252e-08
905   8.3294e-07 -1.0174e-07 -1.9328e-06 -7.6850e-08
906   8.3136e-07 -1.0230e-07 -1.9011e-06 -7.7450e-08
907   8.2941e-07 -1.0287e-07 -2.0715e-06 -7.8051e-08
908   8.2763e-07 -1.0537e-07 -2.0397e-06 -7.8654e-08
909   8.2723e-07 -1.0593e-07 -2.0079e-06 -7.9258e-08
910   8.2649e-07 -1.0650e-07 -1.9762e-06 -7.9863e-08
911   8.2541e-07 -1.0707e-07 -1.9447e-06 -8.0469e-08
912   8.2399e-07 -1.0765e-07 -1.9132e-06 -7.8477e-08
913   8.2220e-07 -1.0822e-07 -1.8819e-06 -7.9088e-08
914   8.2006e-07 -1.0880e-07 -1.8507e-06 -7.9701e-08
915   8.1942e-07 -1.0937e-07 -1.8197e-06 -8.0315e-08
916   8.1883e-07 -1.1181e-07 -1.7888e-06 -8.0930e-08
917   8.1789e-07 -1.1239e-07 -1.9561e-06 -8.1545e-08
918   8.1662e-07 -1.1297e-07 -1.9249e-06 -8.2162e-08
919   8.1499e-07 -1.1355e-07 -1.8938e-06 -8.2780e-08
920   8.1300e-07 -1.1413e-07 -1.8629e-06 -8.3398e-08
921   8.1163e-07 -1.1471e-07 -1.8321e-06 -8.4018e-08
922   8.1117e-07 -1.1530e-07 -1.8015e-06 -8.2001e-08
923   8.1038e-07 -1.1767e-07 -1.7710e-06 -8.2624e-08
924   8.0925e-07 -1.1826e-07 -1.7407e-06 -8.3249e-08
925   8.0777e-07 -1.1885e-07 -1.7106e-06 -8.3874e-08
926   8.0594e-07 -1.1943e-07 -1.6806e-06 -8.4499e-08
927   8.0386e-07 -1.2002e-07 -1.8441e-06 -8.5126e-08
928   8.0353e-07 -1.2061e-07 -1.8137e-06 -8.5753e-08
929   8.0287e-07 -1.2293e-07 -1.7834e-06 -8.6380e-08
930   8.0188e-07 -1.2352e-07 -1.7533e-06 -8.7008e-08
931   8.0055e-07 -1.2411e-07 -1.7234e-06 -8.4954e-08
932   7.9888e-07 -1.2470e-07 -1.6937e-06 -8.5585e-08
933   7.9685e-07 -1.2530e-07 -1.6641e-06 -8.6216e-08
934   7.9589e-07 -1.2756e-07 -1.6348e-06 -8.6848e-08
935   7.9537e-07 -1.2815e-07 -1.6056e-06 -8.7480e-08
936   7.9452e-07 -1.2875e-07 -1.5733e-06 -8.8112e-08
937   7.9333e-07 -1.2934e-07 -1.7359e-06 -8.6008e-08
938   7.9181e-07 -1.3155e-07 -1.7063e-06 -8.6643e-08
939   7.8994e-07 -1.3215e-07 -1.6769e-06 -8.7278e-08
940   7.8828e-07 -1.3274e-07 -1.6477e-06 -8.7913e-08
941   7.8788e-07 -1.3490e-07 -1.6188e-06 -8.8548e-08
942   7.8717e-07 -1.3549e-07 -1.5900e-06 -8.9183e-08
943   7.8612e-07 -1.3609e-07 -1.5614e-06 -8.7026e-08
944   7.8474e-07 -1.3820e-07 -1.5330e-06 -8.7663e-08
945   7.8302e-07 -1.3879e-07 -1.5049e-06 -8.8300e-08
946   7.8095e-07 -1.3939e-07 -1.4739e-06 -8.8937e-08
947   7.8041e-07 -1.4145e-07 -1.6315e-06 -8.9573e-08
948   7.7983e-07 -1.4347e-07 -1.6029e-06 -8.7359e-08
949   7.7891e-07 -1.4405e-07 -1.5745e-06 -8.7997e-08
950   7.7767e-07 -1.4603e-07 -1.5462e-06 -8.8635e-08
951   7.7610e-07 -1.4796e-07 -1.5182e-06 -8.9272e-08
952   7.7418e-07 -1.5600e-07 -1.4905e-06 -8.6998e-08
953   7.7296e-07 -1.5766e-07 -1.4629e-06 -8.7636e-08
954   7.7250e-07 -1.5820e-07 -1.4356e-06 -8.8275e-08
955   7.7172e-07 -1.5875e-07 -1.4085e-06 -8.8913e-08
956   7.7061e-07 -1.5930e-07 -1.3789e-06 -8.6577e-08
957   7.6918e-07 -1.6082e-07 -1.5313e-06 -8.7215e-08
958   7.6741e-07 -1.6136e-07 -1.5036e-06 -8.7854e-08
959   7.6552e-07 -1.6191e-07 -1.4762e-06 -8.8492e-08
960   7.6518e-07 -1.6245e-07 -1.4490e-06 -8.6093e-08
961   7.6453e-07 -1.6299e-07 -1.4220e-06 -8.6732e-08
962   7.6356e-07 -1.6354e-07 -1.3953e-06 -8.7370e-08
963   7.6227e-07 -1.6408e-07 -1.3688e-06 -8.8008e-08
964   7.6064e-07 -1.6462e-07 -1.3425e-06 -8.5546e-08
965   7.5868e-07 -1.6517e-07 -1.3166e-06 -8.6185e-08
966   7.5788e-07 -1.6571e-07 -1.2883e-06 -8.6822e-08
967   7.5736e-07 -1.6625e-07 -1.4351e-06 -8.4302e-08
968   7.5652e-07 -1.6680e-07 -1.4085e-06 -8.4939e-08
969   7.5536e-07 -1.6803e-07 -1.3821e-06 -8.5576e-08
970   7.5387e-07 -1.6856e-07 -1.3559e-06 -8.3006e-08
971   7.5205e-07 -1.6910e-07 -1.3300e-06 -8.3644e-08
972   7.5060e-07 -1.6964e-07 -1.3044e-06 -8.4280e-08
973   7.5020e-07 -1.7017e-07 -1.2790e-06 -8.1656e-08
974   7.4948e-07 -1.7071e-07 -1.2539e-06 -8.2293e-08
975   7.4845e-07 -1.7124e-07 -1.2290e-06 -8.2929e-08
976   7.4710e-07 -1.7178e-07 -1.2021e-06 -8.3565e-08
977   7.4542e-07 -1.7231e-07 -1.3432e-06 -8.4200e-08
978   7.4341e-07 -1.7284e-07 -1.3176e-06 -1.1751e-07
979   7.4305e-07 -1.7338e-07 -1.2923e-06 -1.1742e-07
980   7.4246e-07 -1.7391e-07 -1.2672e-06 -1.1733e-07
981   7.4156e-07 -1.7444e-07 -1.2424e-06 -1.1722e-07
982   7.4034e-07 -1.7497e-07 -1.2178e-06 -1.1709e-07
983   7.3880e-07 -1.7550e-07 -1.1935e-06 -1.1696e-07
984   7.3693e-07 -1.7603e-07 -1.1695e-06 -1.1681e-07
985   7.3592e-07 -1.7656e-07 -1.1458e-06 -1.1665e-07
986   7.3545e-07 -1.7708e-07 -1.1202e-06 -1.1647e-07
987   7.3467e-07 -1.7761e-07 -1.2555e-06 -1.2082e-07
988   7.3358e-07 -1.7814e-07 -1.2309e-06 -1.2062e-07
989   7.3218e-07 -1.7866e-07 -1.2067e-06 -1.2041e-07
990   7.3045e-07 -1.7919e-07 -1.1827e-06 -1.2018e-07
991   7.2882e-07 -1.7971e-07 -1.1590e-06 -1.1892e-07
992   7.2846e-07 -1.8023e-07 -1.1355e-06 -1.1875e-07
993   7.2780e-07 -1.8075e-07 -1.1124e-06 -1.1856e-07
994   7.2683e-07 -1.8127e-07 -1.0895e-06 -1.1836e-07
995   7.2556e-07 -1.8179e-07 -1.0669e-06 -1.1815e-07
996   7.2397e-07 -1.8230e-07 -1.0446e-06 -1.1792e-07
997   7.2205e-07 -1.8282e-07 -1.1720e-06 -1.1768e-07
998   7.2148e-07 -1.8333e-07 -1.1485e-06 -1.1742e-07
999   7.2094e-07 -1.8385e-07 -1.1254e-06 -1.1715e-07
1000  7.2010e-07 -1.8436e-07 -1.1025e-06 -1.2139e-07
1001  7.1895e-07 -1.8487e-07 -1.0799e-06 -1.2110e-07
1002  7.1749e-07 -1.8538e-07 -1.0575e-06 -1.2079e-07
1003  7.1571e-07 -1.8589e-07 -1.0355e-06 -1.2046e-07
1004  7.1452e-07 -1.8639e-07 -1.0137e-06 -1.1970e-07
1005  7.1409e-07 -1.8690e-07 -9.9223e-07 -1.1943e-07
1006  7.1337e-07 -1.8740e-07 -9.7104e-07 -1.1915e-07
1007  7.1234e-07 -1.8790e-07 -9.4840e-07 -1.1885e-07
1008  7.1101e-07 -1.8840e-07 -1.0703e-06 -1.1854e-07
1009  7.0937e-07 -1.8890e-07 -1.0483e-06 -1.1822e-07
1010  7.0758e-07 -1.8948e-07 -1.0265e-06 -1.1787e-07
1011  7.0726e-07 -1.8997e-07 -1.0050e-06 -1.2202e-07
1012  7.0665e-07 -1.9045e-07 -9.8372e-07 -1.2165e-07
1013  7.0575e-07 -1.9093e-07 -9.6277e-07 -1.2127e-07
1014  7.0454e-07 -1.9141e-07 -9.4211e-07 -1.2087e-07
1015  7.0303e-07 -1.9189e-07 -9.2173e-07 -1.2049e-07
1016  7.0120e-07 -1.9236e-07 -9.0163e-07 -1.2015e-07
1017  7.0045e-07 -1.9284e-07 -8.8025e-07 -1.1980e-07
1018  6.9995e-07 -1.9331e-07 -9.9624e-07 -1.1943e-07
1019  6.9917e-07 -1.9378e-07 -9.7526e-07 -1.1904e-07
1020  6.9808e-07 -1.9425e-07 -9.5455e-07 -1.1864e-07
1021  6.9669e-07 -1.9471e-07 -9.3413e-07 -1.2271e-07
1022  6.9500e-07 -1.9517e-07 -9.1399e-07 -1.2228e-07
1023  6.9366e-07 -1.9563e-07 -8.9413e-07 -1.2183e-07
1024  6.9327e-07 -1.9609e-07 -8.7455e-07 -1.2137e-07
1025  6.9260e-07 -1.9655e-07 -8.5526e-07 -1.2088e-07
1026  6.9163e-07 -1.9700e-07 -8.3625e-07 -1.2092e-07
1027  6.9037e-07 -1.9746e-07 -8.1609e-07 -1.2050e-07
1028  6.8880e-07 -1.9790e-07 -9.2620e-07 -1.2008e-07
1029  6.8692e-07 -1.9835e-07 -9.0629e-07 -1.1963e-07
1030  6.8660e-07 -1.9880e-07 -8.8666e-07 -1.1916e-07
1031  6.8604e-07 -1.9924e-07 -8.6731e-07 -1.2315e-07
1032  6.8519e-07 -1.9968e-07 -8.4824e-07 -1.2265e-07
1033  6.8404e-07 -2.0012e-07 -8.2945e-07 -1.2214e-07
1034  6.8260e-07 -2.0055e-07 -8.1094e-07 -1.2161e-07
1035  6.8085e-07 -2.0098e-07 -7.9271e-07 -1.2106e-07
1036  6.7995e-07 -2.0141e-07 -7.7476e-07 -1.2144e-07
1037  6.7950e-07 -2.0184e-07 -7.5578e-07 -1.2097e-07
1038  6.7876e-07 -2.0226e-07 -7.3845e-07 -1.2047e-07
1039  6.7773e-07 -2.0269e-07 -8.4125e-07 -1.1996e-07
1040  6.7641e-07 -2.0311e-07 -8.2268e-07 -1.1943e-07
1041  6.7479e-07 -2.0352e-07 -8.0438e-07 -1.2333e-07
1042  6.7332e-07 -2.0394e-07 -7.8636e-07 -1.2277e-07
1043  6.7297e-07 -2.0435e-07 -7.6861e-07 -1.2218e-07
1044  6.7234e-07 -2.0476e-07 -7.5114e-07 -1.2158e-07
1045  6.7143e-07 -2.0516e-07 -7.3395e-07 -1.2096e-07
1046  6.7023e-07 -2.0557e-07 -7.1703e-07 -1.2171e-07
1047  6.6873e-07 -2.0597e-07 -7.0039e-07 -1.2117e-07
1048  6.6693e-07 -2.0636e-07 -6.8288e-07 -1.2061e-07
1049  6.6646e-07 -2.0676e-07 -7.8003e-07 -1.2003e-07
1050  6.6594e-07 -2.0715e-07 -7.6248e-07 -1.2385e-07
1051  6.6514e-07 -2.0754e-07 -7.4521e-07 -1.2324e-07
1052  6.6405e-07 -2.0793e-07 -7.2821e-07 -1.2260e-07
1053  6.6268e-07 -2.0831e-07 -7.1148e-07 -1.2195e-07
1054  6.6101e-07 -2.0869e-07 -6.9502e-07 -1.2127e-07
1055  6.5997e-07 -2.0907e-07 -6.7884e-07 -1.2231e-07
1056  6.5955e-07 -2.0944e-07 -6.6292e-07 -1.2172e-07
1057  6.5886e-07 -2.0981e-07 -6.4727e-07 -1.2111e-07
1058  6.5789e-07 -2.1018e-07 -6.3085e-07 -1.2047e-07
1059  6.5663e-07 -2.1055e-07 -7.2249e-07 -1.1982e-07
1060  6.5508e-07 -2.1091e-07 -7.0595e-07 -1.2355e-07
1061  6.5350e-07 -2.1127e-07 -6.8967e-07 -1.2286e-07
1062  6.5318e-07 -2.1162e-07 -6.7366e-07 -1.2215e-07
1063  6.5260e-07 -2.1198e-07 -6.5792e-07 -1.2141e-07
1064  6.5174e-07 -2.1233e-07 -6.4244e-07 -1.2494e-07
1065  6.5059e-07 -2.1267e-07 -6.2723e-07 -1.2211e-07
1066  6.4916e-07 -2.1302e-07 -6.1228e-07 -1.2145e-07
1067  6.4744e-07 -2.1336e-07 -5.9759e-07 -1.2076e-07
1068  6.4683e-07 -2.1370e-07 -5.8220e-07 -1.2004e-07
1069  6.4635e-07 -2.1403e-07 -5.6807e-07 -1.2370e-07
1070  6.4560e-07 -2.1436e-07 -6.5293e-07 -1.2295e-07
1071  6.4457e-07 -2.1469e-07 -6.3762e-07 -1.2218e-07
1072  6.4325e-07 -2.1501e-07 -6.2257e-07 -1.2138e-07
1073  6.4165e-07 -2.1533e-07 -6.0778e-07 -1.2483e-07
1074  6.4050e-07 -2.1565e-07 -5.9325e-07 -1.2234e-07
1075  6.4012e-07 -2.1597e-07 -5.7897e-07 -1.2162e-07
1076  6.3947e-07 -2.1628e-07 -5.6495e-07 -1.2087e-07
1077  6.3855e-07 -2.1659e-07 -5.5118e-07 -1.2010e-07
1078  6.3735e-07 -2.1689e-07 -5.3766e-07 -1.2368e-07
1079  6.3587e-07 -2.1719e-07 -5.2356e-07 -1.2287e-07
1080  6.3420e-07 -2.1749e-07 -6.0330e-07 -1.2203e-07
1081  6.3391e-07 -2.1779e-07 -5.8892e-07 -1.2541e-07
1082  6.3336e-07 -2.1808e-07 -5.7479e-07 -1.2454e-07
1083  6.3255e-07 -2.1837e-07 -5.6092e-07 -1.2241e-07
1084  6.3146e-07 -2.1865e-07 -5.4729e-07 -1.2162e-07
1085  6.3009e-07 -2.1893e-07 -5.3392e-07 -1.2081e-07
1086  6.2845e-07 -2.1921e-07 -5.2079e-07 -1.2432e-07
1087  6.2772e-07 -2.1948e-07 -5.0790e-07 -1.2347e-07
1088  6.2727e-07 -2.1976e-07 -4.9526e-07 -1.2260e-07
1089  6.2656e-07 -2.2002e-07 -4.8209e-07 -1.2170e-07
1090  6.2558e-07 -2.2029e-07 -4.6995e-07 -1.2500e-07
1091  6.2433e-07 -2.2055e-07 -5.4341e-07 -1.2405e-07
1092  6.2280e-07 -2.2081e-07 -5.3017e-07 -1.2229e-07
1093  6.2155e-07 -2.2106e-07 -5.1718e-07 -1.2145e-07
1094  6.2120e-07 -2.2131e-07 -5.0442e-07 -1.2057e-07
1095  6.2059e-07 -2.2156e-07 -4.9191e-07 -1.2400e-07
1096  6.1971e-07 -2.2180e-07 -4.7963e-07 -1.2308e-07
1097  6.1857e-07 -2.2204e-07 -4.6759e-07 -1.2214e-07
1098  6.1716e-07 -2.2228e-07 -4.5578e-07 -1.2537e-07
1099  6.1546e-07 -2.2251e-07 -4.4420e-07 -1.2438e-07
1100  6.1514e-07 -2.2274e-07 -4.3218e-07 -1.2288e-07
1101  6.1463e-07 -2.2296e-07 -4.2108e-07 -1.2200e-07
1102  6.1386e-07 -2.2319e-07 -4.8856e-07 -1.2108e-07
1103  6.1283e-07 -2.2340e-07 -4.7641e-07 -1.2444e-07
1104  6.1152e-07 -2.2362e-07 -4.6448e-07 -1.2348e-07
1105  6.0994e-07 -2.2383e-07 -4.5279e-07 -1.2250e-07
1106  6.0911e-07 -2.2404e-07 -4.4133e-07 -1.2566e-07
1107  6.0870e-07 -2.2424e-07 -4.3009e-07 -1.2463e-07
1108  6.0803e-07 -2.2444e-07 -4.1907e-07 -1.2357e-07
1109  6.0710e-07 -2.2464e-07 -4.0828e-07 -1.2246e-07
1110  6.0590e-07 -2.2484e-07 -3.9709e-07 -1.2151e-07
1111  6.0443e-07 -2.2503e-07 -3.8675e-07 -1.2053e-07
1112  6.0310e-07 -2.2521e-07 -4.4981e-07 -1.2379e-07
1113  6.0278e-07 -2.2539e-07 -4.3845e-07 -1.2277e-07
1114  6.0221e-07 -2.2557e-07 -4.2733e-07 -1.2171e-07
1115  6.0138e-07 -2.2575e-07 -4.1642e-07 -1.2478e-07
1116  6.0029e-07 -2.2592e-07 -4.0573e-07 -1.2367e-07
1117  5.9893e-07 -2.2729e-07 -3.9525e-07 -1.2284e-07
1118  5.9731e-07 -2.2747e-07 -3.8499e-07 -1.2184e-07
1119  5.9688e-07 -2.2764e-07 -3.7494e-07 -1.2082e-07
1120  5.9641e-07 -2.2781e-07 -3.6510e-07 -1.2401e-07
1121  5.9568e-07 -2.2797e-07 -3.5493e-07 -1.2294e-07
1122  5.9469e-07 -2.2814e-07 -3.4552e-07 -1.2184e-07
1123  5.9345e-07 -2.2829e-07 -4.0317e-07 -1.2483e-07
1124  5.9193e-07 -2.2845e-07 -3.9280e-07 -1.2368e-07
1125  5.9101e-07 -2.2860e-07 -3.8264e-07 -1.2313e-07
1126  5.9063e-07 -2.2874e-07 -3.7268e-07 -1.2209e-07
1127  5.8999e-07 -2.2889e-07 -3.6293e-07 -1.2102e-07
1128  5.8911e-07 -2.2902e-07 -3.5338e-07 -1.2414e-07
1129  5.8797e-07 -2.2916e-07 -3.4404e-07 -1.2303e-07
1130  5.8657e-07 -2.2929e-07 -3.3489e-07 -1.2188e-07
1131  5.8516e-07 -2.2942e-07 -3.2594e-07 -1.2480e-07
1132  5.8487e-07 -2.2954e-07 -3.1671e-07 -1.2360e-07
1133  5.8433e-07 -2.2966e-07 -3.0817e-07 -1.2237e-07
1134  5.8354e-07 -2.2977e-07 -3.6075e-07 -1.2225e-07
1135  5.8251e-07 -2.2989e-07 -3.5130e-07 -1.2113e-07
1136  5.8121e-07 -2.2999e-07 -3.4204e-07 -1.2418e-07
1137  5.7965e-07 -2.3010e-07 -3.3298e-07 -1.2301e-07
1138  5.7913e-07 -2.3020e-07 -3.2411e-07 -1.2182e-07
1139  5.7868e-07 -2.3029e-07 -3.1543e-07 -1.2467e-07
1140  5.7799e-07 -2.3039e-07 -3.0694e-07 -1.2342e-07
1141  5.7706e-07 -2.3048e-07 -2.9863e-07 -1.2213e-07
1142  5.7586e-07 -2.3056e-07 -2.9008e-07 -1.2231e-07
1143  5.7442e-07 -2.3064e-07 -2.8216e-07 -1.2115e-07
1144  5.7341e-07 -2.3072e-07 -3.3105e-07 -1.2412e-07
1145  5.7306e-07 -2.3079e-07 -3.2226e-07 -1.2291e-07
1146  5.7246e-07 -2.3086e-07 -3.1366e-07 -1.2166e-07
1147  5.7162e-07 -2.3093e-07 -3.0525e-07 -1.2443e-07
1148  5.7053e-07 -2.3099e-07 -2.9702e-07 -1.2313e-07
1149  5.6919e-07 -2.3105e-07 -2.8896e-07 -1.2180e-07
1150  5.6772e-07 -2.3110e-07 -2.8109e-07 -1.2228e-07
1151  5.6745e-07 -2.3115e-07 -2.7339e-07 -1.2107e-07
1152  5.6695e-07 -2.3120e-07 -2.6587e-07 -1.2397e-07
1153  5.6621e-07 -2.3245e-07 -2.5814e-07 -1.2270e-07
1154  5.6522e-07 -2.3249e-07 -2.5097e-07 -1.2140e-07
1155  5.6398e-07 -2.3253e-07 -2.9539e-07 -1.2410e-07
1156  5.6248e-07 -1.7652e-07 -2.8741e-07 -1.2275e-07
1157  5.6187e-07 -1.7671e-07 -2.7961e-07 -1.2136e-07
1158  5.6146e-07 -1.7689e-07 -2.7198e-07 -1.2215e-07
1159  5.6081e-07 -1.7706e-07 -2.6452e-07 -1.2089e-07
1160  5.5992e-07 -1.7722e-07 -2.5723e-07 -1.2371e-07
1161  5.5878e-07 -1.7737e-07 -2.5010e-07 -1.2240e-07
1162  5.5739e-07 -1.7752e-07 -2.4314e-07 -1.2105e-07
1163  5.5631e-07 -1.7766e-07 -2.3634e-07 -1.2367e-07
1164  5.5599e-07 -1.7778e-07 -2.2937e-07 -1.2226e-07
1165  5.5543e-07 -1.7790e-07 -2.2289e-07 -1.2467e-07
1166  5.5463e-07 -1.7801e-07 -2.6315e-07 -1.2192e-07
1167  5.5359e-07 -1.7811e-07 -2.5593e-07 -1.2061e-07
1168  5.5231e-07 -1.7820e-07 -2.4886e-07 -1.2336e-07
1169  5.5078e-07 -1.7828e-07 -2.4196e-07 -1.2199e-07
1170  5.5054e-07 -1.7835e-07 -2.3521e-07 -1.2456e-07
1171  5.5007e-07 -1.7841e-07 -2.2862e-07 -1.2313e-07
1172  5.4937e-07 -1.7846e-07 -2.2219e-07 -1.2167e-07
1173  5.4842e-07 -1.7851e-07 -2.1590e-07 -1.2400e-07
1174  5.4724e-07 -1.7854e-07 -2.0977e-07 -1.2160e-07
1175  5.4581e-07 -1.7856e-07 -2.0349e-07 -1.2023e-07
1176  5.4511e-07 -1.7857e-07 -1.9766e-07 -1.2290e-07
1177  5.4473e-07 -1.8198e-07 -2.3407e-07 -1.2148e-07
1178  5.4412e-07 -1.8197e-07 -2.2754e-07 -1.2397e-07
1179  5.4327e-07 -1.8194e-07 -2.2116e-07 -1.2249e-07
1180  5.4218e-07 -1.8191e-07 -2.1492e-07 -1.2097e-07
1181  5.4085e-07 -1.8187e-07 -2.0884e-07 -1.2323e-07
1182  5.3971e-07 -1.8181e-07 -2.0290e-07 -1.2117e-07
1183  5.3941e-07 -1.8174e-07 -1.9710e-07 -1.1975e-07
1184  5.3889e-07 -1.8166e-07 -1.9144e-07 -1.2234e-07
1185  5.3813e-07 -1.8156e-07 -1.8565e-07 -1.2086e-07
1186  5.3714e-07 -1.8146e-07 -1.8028e-07 -1.2328e-07
1187  5.3591e-07 -1.8472e-07 -1.7503e-07 -1.2174e-07
1188  5.3444e-07 -1.8459e-07 -2.0789e-07 -1.2395e-07
1189  5.3412e-07 -1.8445e-07 -2.0200e-07 -1.2207e-07
1190  5.3368e-07 -1.8429e-07 -1.9624e-07 -1.2063e-07
1191  5.3302e-07 -1.8412e-07 -1.9063e-07 -1.2317e-07
1192  5.3212e-07 -1.8394e-07 -1.8515e-07 -1.2167e-07
1193  5.3099e-07 -1.8374e-07 -1.7980e-07 -1.2014e-07
1194  5.2961e-07 -1.8352e-07 -1.7458e-07 -1.2248e-07
1195  5.2885e-07 -1.8330e-07 -1.6950e-07 -1.2089e-07
1196  5.2850e-07 -1.8637e-07 -1.6431e-07 -1.2302e-07
1197  5.2792e-07 -1.8611e-07 -1.5948e-07 -1.2149e-07
1198  5.2711e-07 -1.8584e-07 -1.5477e-07 -1.1999e-07
1199  5.2607e-07 -1.8556e-07 -1.8437e-07 -1.2246e-07
1200  5.2480e-07 -1.8526e-07 -1.7907e-07 -1.2090e-07
1201  5.2360e-07 -1.8494e-07 -1.7389e-07 -1.2319e-07
1202  5.2333e-07 -1.8460e-07 -1.6884e-07 -1.2157e-07
1203  5.2284e-07 -1.8425e-07 -1.6391e-07 -1.2366e-07
1204  5.2212e-07 -1.8712e-07 -1.5911e-07 -1.2197e-07
1205  5.2118e-07 -1.8673e-07 -1.5443e-07 -1.2080e-07
1206  5.2000e-07 -1.8633e-07 -1.4986e-07 -1.1925e-07
1207  5.1859e-07 -1.8591e-07 -1.4521e-07 -1.2163e-07
1208  5.1819e-07 -1.8548e-07 -1.4089e-07 -1.2002e-07
1209  5.1778e-07 -1.8502e-07 -1.3667e-07 -1.2223e-07
1210  5.1715e-07 -1.8770e-07 -1.6328e-07 -1.2055e-07
1211  5.1630e-07 -1.8720e-07 -1.5851e-07 -1.2256e-07
1212  5.1522e-07 -1.8669e-07 -1.5386e-07 -1.2158e-07
1213  5.1390e-07 -1.8616e-07 -1.4933e-07 -1.2000e-07
1214  5.1307e-07 -1.8561e-07 -1.4491e-07 -1.2234e-07
1215  5.1274e-07 -1.8810e-07 -1.4060e-07 -1.2070e-07
1216  5.1220e-07 -1.8751e-07 -1.3641e-07 -1.2286e-07
1217  5.1144e-07 -1.8690e-07 -1.3232e-07 -1.2116e-07
1218  5.1045e-07 -1.8626e-07 -1.2817e-07 -1.2312e-07
1219  5.0923e-07 -1.8561e-07 -1.2429e-07 -1.2136e-07
1220  5.0797e-07 -1.8790e-07 -1.2052e-07 -1.2073e-07
1221  5.0773e-07 -1.8720e-07 -1.4440e-07 -1.1910e-07
1222  5.0727e-07 -1.8648e-07 -1.4012e-07 -1.2135e-07
1223  5.0659e-07 -1.8574e-07 -1.3595e-07 -1.1966e-07
1224  5.0569e-07 -1.8784e-07 -1.3189e-07 -1.2174e-07
1225  5.0457e-07 -1.8705e-07 -1.2794e-07 -1.1998e-07
1226  5.0321e-07 -1.8624e-07 -1.2409e-07 -1.2186e-07
1227  5.0273e-07 -1.8817e-07 -1.2033e-07 -1.2004e-07
1228  5.0236e-07 -1.8731e-07 -1.1668e-07 -1.1977e-07
1229  5.0177e-07 -1.8642e-07 -1.1297e-07 -1.2197e-07
1230  5.0095e-07 -1.8819e-07 -1.0951e-07 -1.2026e-07
1231  4.9992e-07 -1.8725e-07 -1.0615e-07 -1.2229e-07
1232  4.9866e-07 -1.8629e-07 -1.2753e-07 -1.2051e-07
1233  4.9776e-07 -1.8787e-07 -1.2370e-07 -1.2235e-07
1234  4.9747e-07 -1.8686e-07 -1.1997e-07 -1.2049e-07
1235  4.9696e-07 -1.8829e-07 -1.1634e-07 -1.2042e-07
1236  4.9623e-07 -1.8722e-07 -1.1280e-07 -1.1871e-07
1237  4.9529e-07 -1.8613e-07 -1.0936e-07 -1.2083e-07
1238  4.9413e-07 -1.8739e-07 -1.0601e-07 -1.1905e-07
1239  4.9282e-07 -1.8624e-07 -1.0275e-07 -1.2101e-07
1240  4.9260e-07 -1.8734e-07 -9.9445e-08 -1.1916e-07
1241  4.9217e-07 -1.8614e-07 -9.6363e-08 -1.2092e-07
1242  4.9153e-07 -1.8710e-07 -9.3365e-08 -1.1901e-07
1243  4.9068e-07 -1.8584e-07 -9.0448e-08 -1.1930e-07
1244  4.8960e-07 -1.8666e-07 -1.0906e-07 -1.2137e-07
1245  4.8831e-07 -1.8535e-07 -1.0573e-07 -1.1957e-07
1246  4.8775e-07 -1.8603e-07 -1.0249e-07 -1.2148e-07
1247  4.8740e-07 -1.8661e-07 -9.9334e-08 -1.1961e-07
1248  4.8685e-07 -1.8522e-07 -9.6264e-08 -1.2133e-07
1249  4.8608e-07 -1.8568e-07 -9.3277e-08 -1.1939e-07
1250  4.8509e-07 -1.8604e-07 -9.0372e-08 -1.1987e-07
1251  4.8389e-07 -1.8459e-07 -8.7546e-08 -1.1807e-07
1252  4.8293e-07 -1.8485e-07 -8.4688e-08 -1.2006e-07
1253  4.8266e-07 -1.8505e-07 -8.2020e-08 -1.1820e-07
1254  4.8218e-07 -1.8518e-07 -7.9427e-08 -1.2003e-07
1255  4.8150e-07 -1.8367e-07 -9.6030e-08 -1.1810e-07
1256  4.8060e-07 -1.8376e-07 -9.3060e-08 -1.1974e-07
1257  4.7949e-07 -1.8382e-07 -9.0172e-08 -1.2122e-07
1258  4.7816e-07 -1.8387e-07 -8.7361e-08 -1.1859e-07
1259  4.7793e-07 -1.8393e-07 -8.4628e-08 -1.2053e-07
1260  4.7754e-07 -1.8240e-07 -8.1971e-08 -1.1864e-07
1261  4.7693e-07 -1.8251e-07 -7.9387e-08 -1.2043e-07
1262  4.7612e-07 -1.8268e-07 -7.6874e-08 -1.1847e-07
1263  4.7510e-07 -1.8117e-07 -7.4336e-08 -1.2007e-07
1264  4.7386e-07 -1.8146e-07 -7.1967e-08 -1.1804e-07
1265  4.7323e-07 -1.8185e-07 -6.9665e-08 -1.1944e-07
1266  4.7291e-07 -1.8040e-07 -8.4451e-08 -1.1735e-07
1267  4.7239e-07 -1.8099e-07 -8.1808e-08 -1.1856e-07
1268  4.7166e-07 -1.7957e-07 -7.9237e-08 -1.1963e-07
1269  4.7072e-07 -1.8040e-07 -7.6738e-08 -1.1743e-07
1270  4.6957e-07 -1.7903e-07 -7.4309e-08 -1.1832e-07
1271  4.6855e-07 -1.7763e-07 -7.1948e-08 -1.1908e-07
1272  4.6831e-07 -1.7882e-07 -6.9653e-08 -1.1678e-07
1273  4.6786e-07 -1.7748e-07 -6.7423e-08 -1.1739e-07
1274  4.6722e-07 -1.7613e-07 -6.5172e-08 -1.1788e-07
1275  4.6636e-07 -1.7775e-07 -6.3072e-08 -1.1826e-07
1276  4.6530e-07 -1.7646e-07 -6.1031e-08 -1.1583e-07
1277  4.6403e-07 -1.7517e-07 -7.4178e-08 -1.1610e-07
1278  4.6372e-07 -1.7386e-07 -7.1829e-08 -1.1629e-07
1279  4.6335e-07 -1.7608e-07 -6.9546e-08 -1.1641e-07
1280  4.6279e-07 -1.7485e-07 -6.7327e-08 -1.1648e-07
1281  4.6202e-07 -1.7362e-07 -6.5170e-08 -1.1652e-07
1282  4.6104e-07 -1.7238e-07 -6.3076e-08 -1.1396e-07
1283  4.5986e-07 -1.7113e-07 -6.1041e-08 -1.1397e-07
1284  4.5916e-07 -1.7416e-07 -5.9065e-08 -1.1399e-07
1285  4.5887e-07 -1.7301e-07 -5.7072e-08 -1.1404e-07
1286  4.5838e-07 -1.7186e-07 -5.5212e-08 -1.1414e-07
1287  4.5769e-07 -1.7070e-07 -5.3406e-08 -1.1431e-07
1288  4.5680e-07 -1.6954e-07 -5.1653e-08 -1.1172e-07
1289  4.5570e-07 -1.6836e-07 -6.2993e-08 -1.1202e-07
1290  4.5461e-07 -1.6719e-07 -6.0968e-08 -1.1244e-07
1291  4.5440e-07 -1.7144e-07 -5.9000e-08 -1.1303e-07
1292  4.5399e-07 -1.7039e-07 -5.7090e-08 -1.1051e-07
1293  4.5338e-07 -1.6934e-07 -5.5234e-08 -1.1133e-07
1294  4.5257e-07 -1.6829e-07 -5.3433e-08 -1.0883e-07
1295  4.5156e-07 -1.6723e-07 -5.1684e-08 -1.0994e-07
1296  4.5034e-07 -1.6618e-07 -4.9986e-08 -1.1133e-07
1297  4.4995e-07 -1.6512e-07 -4.8277e-08 -1.0893e-07
1298  4.4961e-07 -1.6406e-07 -4.6681e-08 -1.1070e-07
1299  4.4908e-07 -1.6299e-07 -4.5132e-08 -1.0835e-07
1300  4.4835e-07 -1.6193e-07 -5.5181e-08 -1.0598e-07
1301  4.4743e-07 -1.6087e-07 -5.3387e-08 -1.0828e-07
1302  4.4629e-07 -1.6719e-07 -5.1645e-08 -1.0598e-07
1303  4.4552e-07 -1.6629e-07 -4.9954e-08 -1.0878e-07
1304  4.4526e-07 -1.6540e-07 -4.8313e-08 -1.0658e-07
1305  4.4480e-07 -1.6451e-07 -4.6720e-08 -1.0436e-07
1306  4.4416e-07 -1.6362e-07 -4.5175e-08 -1.0784e-07
1307  4.4331e-07 -1.6273e-07 -4.3675e-08 -1.0572e-07
1308  4.4226e-07 -1.6185e-07 -4.2167e-08 -1.0360e-07
1309  4.4111e-07 -1.6097e-07 -4.0759e-08 -1.0784e-07
1310  4.4092e-07 -1.6010e-07 -3.9392e-08 -1.0584e-07
1311  4.4054e-07 -1.5924e-07 -3.8067e-08 -1.0383e-07
1312  4.3997e-07 -1.5838e-07 -4.6696e-08 -1.0181e-07
1313  4.3921e-07 -1.5752e-07 -4.5157e-08 -9.9793e-08
1314  4.3824e-07 -1.5667e-07 -4.3663e-08 -1.0517e-07
1315  4.3708e-07 -1.5583e-07 -4.2213e-08 -1.0330e-07
1316  4.3661e-07 -1.5500e-07 -4.0807e-08 -1.0142e-07
1317  4.3630e-07 -1.5417e-07 -3.9443e-08 -9.9541e-08
1318  4.3581e-07 -1.5335e-07 -3.8120e-08 -9.7662e-08
1319  4.3512e-07 -1.5255e-07 -3.6791e-08 -1.0432e-07
1320  4.3424e-07 -1.5175e-07 -3.5550e-08 -1.0261e-07
1321  4.3315e-07 -1.5096e-07 -3.4346e-08 -1.0090e-07
1322  4.3231e-07 -1.5018e-07 -3.3179e-08 -9.9198e-08
1323  4.3208e-07 -1.4941e-07 -3.2049e-08 -9.7497e-08
1324  4.3166e-07 -1.4865e-07 -3.9441e-08 -9.5800e-08
1325  4.3104e-07 -1.4791e-07 -3.8122e-08 -9.4109e-08
1326  4.3024e-07 -1.4718e-07 -3.6844e-08 -1.0256e-07
1327  4.2924e-07 -1.4646e-07 -3.5604e-08 -1.0107e-07
1328  4.2805e-07 -1.4575e-07 -3.4402e-08 -9.9581e-08
1329  4.2787e-07 -1.4506e-07 -3.3237e-08 -9.8104e-08
1330  4.2752e-07 -1.4438e-07 -3.2107e-08 -9.6636e-08
1331  4.2699e-07 -1.4372e-07 -3.0974e-08 -9.5180e-08
1332  4.2626e-07 -1.4307e-07 -2.9915e-08 -9.3734e-08
1333  4.2535e-07 -1.4244e-07 -2.8889e-08 -9.2301e-08
1334  4.2423e-07 -1.4183e-07 -2.7895e-08 -9.0881e-08
1335  4.2368e-07 -1.4123e-07 -3.4412e-08 -8.9474e-08
1336  4.2340e-07 -1.4065e-07 -3.3250e-08 -1.0055e-07
1337  4.2294e-07 -1.4009e-07 -3.2124e-08 -9.9374e-08
1338  4.2230e-07 -1.3955e-07 -3.1032e-08 -9.8213e-08
1339  4.2146e-07 -1.3903e-07 -2.9974e-08 -9.7069e-08
1340  4.2043e-07 -1.3852e-07 -2.8949e-08 -9.5944e-08
1341  4.1951e-07 -1.3804e-07 -2.7956e-08 -9.4837e-08
1342  4.1931e-07 -1.3758e-07 -2.6960e-08 -9.3751e-08
1343  4.1892e-07 -1.3715e-07 -2.6030e-08 -9.2685e-08
1344  4.1834e-07 -1.3673e-07 -2.5129e-08 -9.1641e-08
1345  4.1758e-07 -1.3634e-07 -2.4256e-08 -9.0619e-08
1346  4.1664e-07 -1.3597e-07 -2.3411e-08 -8.9620e-08
1347  4.1549e-07 -1.3563e-07 -2.8971e-08 -8.8644e-08
1348  4.1522e-07 -1.3531e-07 -2.7980e-08 -8.7694e-08
1349  4.1491e-07 -1.3502e-07 -2.7020e-08 -8.6768e-08
1350  4.1441e-07 -1.3475e-07 -2.6090e-08 -8.5870e-08
1351  4.1372e-07 -1.3451e-07 -2.5190e-08 -8.4998e-08
1352  4.1285e-07 -1.3430e-07 -2.4317e-08 -8.4154e-08
1353  4.1179e-07 -1.3412e-07 -2.3472e-08 -8.3339e-08
1354  4.1116e-07 -1.3396e-07 -2.2627e-08 -8.2553e-08
1355  4.1091e-07 -1.3384e-07 -2.1836e-08 -8.1798e-08
1356  4.1048e-07 -1.3374e-07 -2.1071e-08 -8.1074e-08
1357  4.0988e-07 -1.3368e-07 -2.0330e-08 -8.0383e-08
1358  4.0908e-07 -1.3365e-07 -1.9613e-08 -7.9724e-08
1359  4.0810e-07 -1.3365e-07 -2.4347e-08 -7.9099e-08
1360  4.0711e-07 -1.3368e-07 -2.3504e-08 -7.8509e-08
1361  4.0693e-07 -1.3374e-07 -2.2687e-08 -7.7955e-08
1362  4.0658e-07 -1.3384e-07 -2.1897e-08 -7.7437e-08
1363  4.0604e-07 -1.3398e-07 -2.1131e-08 -7.6956e-08
1364  4.0533e-07 -1.3415e-07 -2.0391e-08 -7.6513e-08
1365  4.0442e-07 -1.3435e-07 -1.9674e-08 -7.6110e-08
1366  4.0334e-07 -1.3460e-07 -1.8957e-08 -7.5746e-08
1367  4.0297e-07 -1.3487e-07 -1.8286e-08 -7.5423e-08
1368  4.0268e-07 -1.3519e-07 -1.7638e-08 -7.5142e-08
1369  4.0222e-07 -1.3555e-07 -1.7010e-08 -7.4903e-08
1370  4.0158e-07 -1.3594e-07 -2.1164e-08 -7.4708e-08
1371  4.0075e-07 -1.3637e-07 -2.0425e-08 -7.4557e-08
1372  3.9975e-07 -1.3685e-07 -1.9709e-08 -7.4450e-08
1373  3.9903e-07 -1.3736e-07 -1.9016e-08 -7.4390e-08
1374  3.9881e-07 -1.3792e-07 -1.8346e-08 -7.4376e-08
1375  3.9841e-07 -1.3852e-07 -1.7697e-08 -7.4411e-08
1376  3.9784e-07 -1.3916e-07 -1.7069e-08 -7.4493e-08
1377  3.9710e-07 -1.3984e-07 -1.6442e-08 -7.4625e-08
1378  3.9617e-07 -1.4057e-07 -1.5855e-08 -7.4807e-08
1379  3.9510e-07 -1.1872e-07 -1.5288e-08 -7.5039e-08
1380  3.9494e-07 -1.1936e-07 -1.4740e-08 -7.5324e-08
1381  3.9462e-07 -1.2005e-07 -1.4209e-08 -7.5661e-08
1382  3.9412e-07 -1.2079e-07 -1.7732e-08 -7.6052e-08
1383  3.9345e-07 -1.2157e-07 -1.7106e-08 -7.6497e-08
1384  3.9259e-07 -1.2241e-07 -1.6499e-08 -7.6996e-08
1385  3.9156e-07 -1.2329e-07 -1.5912e-08 -7.7551e-08
1386  3.9110e-07 -1.2423e-07 -1.5345e-08 -7.8162e-08
1387  3.9084e-07 -1.2521e-07 -1.4796e-08 -7.8831e-08
1388  3.9041e-07 -1.2625e-07 -1.4265e-08 -7.9558e-08
1389  3.8981e-07 -1.2734e-07 -1.3735e-08 -8.0343e-08
1390  3.8903e-07 -1.2849e-07 -1.3239e-08 -8.1188e-08
1391  3.8808e-07 -1.2968e-07 -1.2761e-08 -8.2093e-08
1392  3.8727e-07 -1.3094e-07 -1.2298e-08 -8.3058e-08
1393  3.8708e-07 -1.3224e-07 -1.1850e-08 -8.4084e-08
1394  3.8672e-07 -1.3360e-07 -1.4832e-08 -8.5174e-08
1395  3.8619e-07 -1.3502e-07 -1.4302e-08 -8.6325e-08
1396  3.8548e-07 -1.1176e-07 -1.3789e-08 -8.7540e-08
1397  3.8460e-07 -1.1316e-07 -1.3293e-08 -6.5007e-08
1398  3.8354e-07 -1.1463e-07 -1.2813e-08 -6.6226e-08
1399  3.8333e-07 -1.1616e-07 -1.2350e-08 -6.7515e-08
1400  3.8304e-07 -1.1774e-07 -1.1902e-08 -6.8872e-08
1401  3.8257e-07 -1.1939e-07 -1.1455e-08 -7.0300e-08
1402  3.8194e-07 -1.2111e-07 -1.1037e-08 -7.1799e-08
1403  3.8113e-07 -1.2288e-07 -1.0634e-08 -7.3369e-08
1404  3.8015e-07 -1.2472e-07 -1.0244e-08 -7.5011e-08
1405  3.7959e-07 -1.2662e-07 -9.8670e-09 -7.6725e-08
1406  3.7937e-07 -1.2859e-07 -1.2386e-08 -7.8512e-08
1407  3.7897e-07 -1.3062e-07 -1.1938e-08 -8.0373e-08
1408  3.7841e-07 -1.3272e-07 -1.1506e-08 -8.2307e-08
1409  3.7768e-07 -1.0934e-07 -1.1087e-08 -8.4316e-08
1410  3.7677e-07 -1.1150e-07 -1.0683e-08 -6.1831e-08
1411  3.7568e-07 -1.1372e-07 -1.0292e-08 -6.3919e-08
1412  3.7442e-07 -1.1602e-07 -9.9148e-09 -6.6087e-08
1413  3.7298e-07 -1.1839e-07 -9.5388e-09 -6.8336e-08
1414  3.7135e-07 -1.2083e-07 -9.1872e-09 -7.0666e-08
1415  3.6953e-07 -1.2334e-07 -8.8476e-09 -7.3078e-08
1416  3.6753e-07 -1.2592e-07 -8.5197e-09 -7.5571e-08
1417  3.6535e-07 -1.2857e-07 -8.2031e-09 -7.8146e-08
1418  3.6297e-07 -1.3129e-07 -1.0327e-08 -8.0803e-08
1419  3.6039e-07 -1.0856e-07 -9.9499e-09 -8.3542e-08
1420  3.5768e-07 -1.1141e-07 -9.5852e-09 -6.1846e-08
1421  3.5481e-07 -1.1433e-07 -9.2329e-09 -6.4728e-08
1422  3.5175e-07 -1.1734e-07 -8.8926e-09 -6.7699e-08
1423  3.4849e-07 -1.2041e-07 -8.5640e-09 -7.0759e-08
1424  3.4503e-07 -1.2357e-07 -8.2466e-09 -7.3907e-08
1425  3.4137e-07 -1.2681e-07 -7.9308e-09 -7.7143e-08
1426  3.3751e-07 -1.3012e-07 -7.6355e-09 -8.0469e-08
1427  3.3345e-07 -1.0844e-07 -7.3503e-09 -8.3883e-08
1428  3.2918e-07 -1.1193e-07 -7.0751e-09 -6.3366e-08
1429  3.2470e-07 -1.1550e-07 -6.8095e-09 -6.6976e-08
1430  3.2011e-07 -1.1915e-07 -6.5532e-09 -7.0680e-08
1431  3.1532e-07 -1.2288e-07 -8.2797e-09 -7.4478e-08
1432  3.1033e-07 -1.2670e-07 -7.9730e-09 -7.8370e-08
1433  3.0513e-07 -1.3060e-07 -7.6770e-09 -8.2356e-08
1434  2.9972e-07 -1.1025e-07 -7.3911e-09 -6.3142e-08
1435  2.9410e-07 -1.1437e-07 -7.1152e-09 -6.7365e-08
1436  2.8827e-07 -1.1858e-07 -6.8488e-09 -7.1686e-08
1437  2.8223e-07 -1.2287e-07 -6.5840e-09 -7.6106e-08
1438  2.7599e-07 -1.2725e-07 -6.3363e-09 -8.0623e-08
1439  2.6956e-07 -1.0822e-07 -6.0973e-09 -6.2786e-08
1440  2.6300e-07 -1.1286e-07 -5.8668e-09 -6.7574e-08
1441  2.5623e-07 -1.1758e-07 -5.6443e-09 -7.2465e-08
1442  2.4925e-07 -1.2239e-07 -5.4298e-09 -7.7458e-08
1443  2.4207e-07 -1.2730e-07 -6.8795e-09 -8.2552e-08
1444  2.3468e-07 -1.0976e-07 -6.6221e-09 -6.6269e-08
1445  2.2707e-07 -1.1495e-07 -6.3737e-09 -7.1665e-08
1446  2.1927e-07 -1.2024e-07 -6.1340e-09 -7.7167e-08
1447  2.1125e-07 -1.2561e-07 -5.9027e-09 -8.2773e-08
1448  2.0303e-07 -1.3108e-07 -5.6796e-09 -6.7989e-08
1449  1.9470e-07 -1.1521e-07 -5.4579e-09 -7.3923e-08
1450  1.8619e-07 -1.2099e-07 -5.2506e-09 -7.9964e-08
1451  1.7747e-07 -1.2687e-07 -5.0506e-09 -6.6553e-08
1452  1.6856e-07 -1.3285e-07 -4.8577e-09 -7.2941e-08
1453  1.5944e-07 -1.1856e-07 -4.6718e-09 -7.9438e-08
1454  1.5013e-07 -1.2487e-07 -4.4925e-09 -8.6045e-08
1455  1.4062e-07 -1.3128e-07 -5.7077e-09 -7.4335e-08
1456  1.3092e-07 -1.1841e-07 -5.4920e-09 -8.1308e-08
1457  1.2102e-07 -1.2518e-07 -5.2840e-09 -7.0859e-08
1458  1.1105e-07 -1.3204e-07 -5.0833e-09 -7.8211e-08
1459  1.0090e-07 -1.2067e-07 -4.8898e-09 -8.5677e-08
1460  9.0560e-08 -1.2791e-07 -4.7032e-09 -7.6807e-08
1461  8.0039e-08 -1.3524e-07 -4.5179e-09 -8.4666e-08
1462  6.9336e-08 -1.2543e-07 -4.3446e-09 -7.7146e-08
1463  5.8454e-08 -1.3314e-07 -4.1776e-09 -8.5407e-08
1464  4.7395e-08 -1.2465e-07 -4.0166e-09 -7.9276e-08
1465  3.6161e-08 -1.3277e-07 -3.8614e-09 -8.7947e-08
1466  2.4864e-08 -1.2563e-07 -3.7118e-09 -8.3239e-08
1467  1.3424e-08 -1.3415e-07 -4.7286e-09 -7.9686e-08
1468  1.8189e-09 -1.2840e-07 -4.5483e-09 -8.9077e-08
1469  3.6637e-15 -1.3733e-07 -4.3743e-09 -8.7006e-08
1470  5.5282e-15 -1.3301e-07 -4.2066e-09 -8.6138e-08
1471  5.5212e-15 -1.4234e-07 -4.0450e-09 -8.6494e-08
1472  5.1214e-15 -1.3948e-07 -3.8891e-09 -8.8096e-08
1473  4.5519e-15 -1.3777e-07 -3.7346e-09 -9.0963e-08
1474  4.8850e-15 -1.3726e-07 -3.5900e-09 -9.5115e-08
1475  4.1872e-15 -1.4764e-07 -3.4507e-09 -9.5493e-08
1476  4.6918e-15 -1.4864e-07 -3.3165e-09 -1.0012e-07
1477  5.2736e-15 -1.5087e-07 -3.1872e-09 9.1644e-16
1478  5.7676e-15 -1.4743e-07 -3.0626e-09 -1.5899e-15
1479  5.2736e-15 -1.5312e-07 -2.9426e-09 -1.1444e-15
1480  4.7115e-15 -1.5595e-07 -3.7614e-09 -1.9455e-15
1481  4.6422e-15 -1.6295e-07 -3.6162e-09 -1.3344e-15
1482  4.7691e-15 -3.5512e-15 -3.4763e-09 -3.5512e-15
1483  4.4409e-15 -1.7422e-15 -3.3415e-09 -9.9123e-16
1484  4.8295e-15 -8.1681e-17 -3.2116e-09 -2.3348e-16
1485  4.2289e-15 -1.3519e-16 -3.0828e-09 -4.7265e-15
1486  4.1668e-15 -3.0684e-15 -2.9624e-09 -7.1503e-17
1487  4.7739e-15 -1.2524e-15 -2.8464e-09 -9.7840e-16
1488  4.3958e-15 -3.2582e-15 -2.7347e-09 -7.3806e-16
1489  4.8931e-15 -3.2053e-15 -2.6272e-09 -3.3985e-15
1490  4.8835e-15 9.0490e-17 -2.5236e-09 9.0490e-17
1491  4.6629e-15 -2.9760e-15 -2.4238e-09 -2.2194e-16
1492  5.5511e-15 -4.4946e-15 -3.1064e-09 -2.2889e-15
1493  4.6907e-15 -3.5972e-15 -2.9855e-09 -3.9441e-15
1494  4.9405e-15 -4.3544e-15 -2.8689e-09 -1.6781e-15
1495  4.6500e-15 -5.3253e-15 -2.7567e-09 -1.1882e-15
1496  4.3719e-15 -3.0856e-15 -2.6485e-09 -6.3671e-16
1497  4.2188e-15 -7.1056e-16 -2.5414e-09 -2.0286e-15
1498  4.3299e-15 -1.9536e-15 -2.4413e-09 -4.2391e-16
1499  4.7989e-15 -5.0434e-15 -2.3449e-09 -8.2791e-16
1500  5.6270e-15 -3.6225e-15 -2.2521e-09 -1.7240e-15
1501  4.0275e-15 -1.3960e-15 -2.1627e-09 -1.4629e-15
1502  4.6051e-15 -2.0387e-15 -2.0767e-09 -1.8364e-15
1503  4.8532e-15 -1.5905e-15 -1.9939e-09 -2.8013e-15
1504  5.0130e-15 -2.4610e-15 -1.9143e-09 6.0378e-16
1505  4.3299e-15 -2.3676e-15 -2.4614e-09 -1.4592e-15
1506  4.5519e-15 -1.4768e-15 -2.3645e-09 -1.6725e-15
1507  4.8572e-15 -3.8418e-15 -2.2712e-09 1.1804e-15
1508  5.5066e-15 -3.0762e-15 -2.1813e-09 -2.1196e-16
1509  4.4409e-15 -2.5032e-15 -2.0948e-09 -4.1116e-16
1510  4.2318e-15 -4.2843e-15 -2.0092e-09 -8.0457e-16
1511  4.3299e-15 3.5020e-17 -1.9292e-09 -3.1443e-15
1512  4.8522e-15 -3.0252e-15 -1.8522e-09 -3.0252e-15
1513  4.5362e-15 -3.6729e-16 -1.7781e-09 -3.6729e-16
1514  4.3299e-15 -2.1871e-15 -1.7068e-09 -2.6439e-15
1515  5.5511e-15 -3.3683e-15 -1.6382e-09 -3.3683e-15
1516  4.1078e-15 6.1518e-16 -1.5722e-09 6.1518e-16
1517  4.3888e-15 -3.8775e-15 -1.5087e-09 -1.4248e-16
1518  4.5706e-15 -1.0850e-15 -1.9462e-09 -2.4424e-15
1519  5.3196e-15 -9.3620e-15 -1.8688e-09 -2.2671e-15
1520  5.5450e-15 -1.7571e-15 -1.7942e-09 -1.7571e-15
1521  4.4409e-15 -3.6995e-15 -1.7225e-09 3.4429e-16
1522  4.9405e-15 -3.6745e-15 -1.6515e-09 -1.1033e-15
1523  4.8768e-15 -8.2210e-17 -1.5852e-09 -1.8965e-15
1524  4.2753e-15 -3.0492e-15 -1.5214e-09 1.6786e-15
1525  4.3160e-15 -1.0218e-15 -1.4600e-09 -1.0218e-15
1526  4.5709e-15 1.1010e-16 -1.4010e-09 -1.8270e-15
1527  4.8226e-15 -1.8476e-15 -1.3442e-09 -5.3581e-16
1528  4.7118e-15 -3.0109e-15 -1.2896e-09 -2.2610e-16
1529  4.2741e-15 -2.7949e-15 -1.2371e-09 -1.8076e-15
1530  4.5469e-15 -8.3450e-16 -1.5999e-09 5.0407e-16
1531  4.5011e-15 -1.7172e-15 -1.5357e-09 -2.7581e-16
1532  5.1625e-15 -2.3665e-15 -1.4740e-09 -1.9940e-16
1533  4.4507e-15 -5.3843e-16 -1.4145e-09 -5.3843e-16
1534  4.6074e-15 -1.2865e-15 -1.3558e-09 -1.2865e-15
1535  4.1181e-15 -1.8495e-15 -1.3009e-09 9.5071e-16
1536  4.8850e-15 -2.6177e-15 -1.2481e-09 -2.7022e-15
1537  4.3663e-15 -4.1972e-15 -1.1974e-09 -2.3469e-15
1538  3.9307e-15 -1.3263e-15 -1.1486e-09 -1.4890e-15
1539  4.0675e-15 -3.1540e-15 -1.1017e-09 6.8359e-16
1540  4.1765e-15 -1.6731e-15 -1.0566e-09 -2.0424e-15
1541  4.8947e-15 -1.2149e-15 -1.0132e-09 3.5115e-17
1542  4.8989e-15 -1.9644e-15 -9.7159e-10 1.2768e-16
1543  4.3136e-15 -1.5116e-15 -1.2605e-09 5.6833e-16
1544  4.8174e-15 -2.8606e-15 -1.2094e-09 -3.2760e-15
1545  4.7012e-15 -4.2914e-15 -1.1602e-09 -1.0243e-15
1546  5.9467e-15 -2.9989e-15 -1.1130e-09 -2.9989e-15
1547  4.2168e-15 1.1308e-16 -1.0663e-09 1.1308e-16
1548  5.0730e-15 -6.1516e-16 -1.0227e-09 7.8903e-17
1549  4.2197e-15 -1.8796e-15 -9.8081e-10 -2.0629e-15
[...]
9607  1.0562e-12 1.1865e-13 1.1865e-13 1.1865e-13
9608  1.0497e-12 5.8074e-13 5.8074e-13 5.8074e-13
9609  1.1121e-12 2.6783e-13 2.6783e-13 2.6783e-13
9610  1.1398e-12 1.4622e-13 -2.5506e-13 1.4622e-13
9611  9.3853e-13 2.2894e-13 9.3621e-14 9.3621e-14
9612  1.5854e-12 -5.0579e-14 6.4689e-13 6.4689e-13
9613  1.4663e-12 3.4393e-13 3.4393e-13 3.4393e-13
9614  1.1776e-12 7.8485e-13 7.8485e-13 7.8485e-13
9615  1.0050e-12 3.3829e-13 3.3829e-13 3.3829e-13
9616  1.3058e-12 1.2151e-13 -5.5485e-13 1.2151e-13
9617  1.7824e-12 4.2031e-13 4.2031e-13 4.2031e-13
9618  1.1541e-12 -2.2610e-14 -2.8904e-14 -2.2610e-14
9619  1.4598e-12 4.3298e-13 -1.9624e-13 4.3298e-13
9620  1.3089e-12 7.2626e-13 -7.6580e-14 7.2626e-13
9621  1.6761e-12 6.0728e-13 6.0728e-13 3.1991e-13
9622  1.0517e-12 2.7222e-13 7.9866e-13 2.3387e-13
9623  1.0940e-12 6.1923e-14 6.1923e-14 6.1923e-14
9624  1.0437e-12 6.2332e-13 6.2332e-13 6.2332e-13
9625  1.4598e-12 8.2851e-14 -1.2011e-13 8.2851e-14
9626  1.0768e-12 1.8323e-17 -2.7266e-13 1.8323e-17
9627  1.4179e-12 3.5378e-13 3.5378e-13 -3.0541e-13
9628  9.9421e-13 4.9802e-13 4.9802e-13 4.9802e-13
9629  1.7383e-12 4.8645e-13 -1.9770e-13 -4.3727e-13
9630  9.7832e-13 8.2648e-13 8.2648e-13 8.2648e-13
9631  1.4437e-12 2.8792e-14 -7.6031e-14 -7.6031e-14
9632  1.4350e-12 -1.5825e-13 -1.5825e-13 5.4592e-13
9633  1.5382e-12 6.6061e-14 6.6061e-14 6.6061e-14
9634  1.6201e-12 -8.5248e-15 -3.5191e-14 -8.5248e-15
9635  1.4107e-12 5.4436e-14 9.2148e-13 5.4436e-14
9636  1.2532e-12 3.4403e-13 3.4403e-13 3.4403e-13
9637  1.1495e-12 3.1788e-13 3.1788e-13 3.1788e-13
9638  1.1991e-12 5.4072e-13 5.4072e-13 5.4072e-13
9639  1.6542e-12 6.8516e-13 -2.0263e-13 -2.0263e-13
9640  1.2977e-12 6.5737e-13 6.5737e-13 6.5737e-13
9641  1.0929e-12 1.9178e-13 1.9178e-13 1.9954e-13
9642  1.0352e-12 3.3713e-14 3.3713e-14 1.0309e-13
9643  1.5515e-12 1.1254e-12 1.1254e-12 1.1254e-12
9644  1.9237e-12 3.6157e-13 3.6157e-13 3.6157e-13
9645  1.2514e-12 3.0652e-13 3.0652e-13 3.0652e-13
9646  9.8680e-13 3.3246e-13 3.3246e-13 2.0542e-13
9647  9.2473e-13 7.7572e-13 7.7572e-13 7.7572e-13
9648  1.3913e-12 -2.0064e-13 8.5641e-14 -1.2012e-13
9649  9.0215e-13 8.9433e-13 -3.1638e-13 8.9433e-13
9650  1.8258e-12 -9.5606e-14 -9.5606e-14 -9.5606e-14
9651  1.4280e-12 -2.2165e-13 1.4098e-13 -2.2165e-13
9652  1.1685e-12 1.0064e-13 1.6571e-14 1.6571e-14
9653  2.1408e-12 7.3766e-13 7.3766e-13 7.3766e-13
9654  1.3244e-12 4.1879e-13 -2.9754e-13 -2.9754e-13
9655  1.1860e-12 5.8974e-13 5.8974e-13 5.8974e-13
9656  1.3130e-12 8.5639e-14 8.5639e-14 8.5639e-14
9657  1.2485e-12 5.5479e-13 5.5479e-13 5.5479e-13
9658  1.0963e-12 -2.8866e-13 9.0315e-13 -2.8866e-13
9659  1.8687e-12 2.8095e-13 -3.1322e-13 -3.1322e-13
9660  1.7116e-12 2.2165e-13 2.2165e-13 2.2165e-13
9661  1.6002e-12 2.2851e-13 7.6787e-13 2.2851e-13
9662  1.2058e-12 -2.8405e-14 -1.5109e-13 -2.8405e-14
9663  1.0787e-12 6.7703e-14 4.4138e-13 8.0907e-14
9664  1.6500e-12 3.7852e-13 3.7852e-13 3.7852e-13
9665  1.2119e-12 7.3079e-13 7.3079e-13 7.3079e-13
9666  1.2783e-12 4.6356e-13 1.8567e-14 4.6356e-13
9667  1.9114e-12 4.2517e-13 4.2517e-13 4.2517e-13
9668  1.2827e-12 -7.0751e-14 -1.7838e-13 5.5325e-13
9669  1.4293e-12 4.6519e-13 4.6519e-13 4.6519e-13
9670  1.5576e-12 2.5295e-13 2.5295e-13 2.5295e-13
9671  1.3435e-12 1.4029e-13 1.4029e-13 1.4029e-13
9672  1.6186e-12 -1.2399e-13 -1.2399e-13 4.2778e-14
9673  1.5076e-12 1.4832e-13 -2.4845e-13 1.4832e-13
9674  1.2865e-12 7.2613e-13 7.2613e-13 7.2613e-13
9675  1.0886e-12 5.8074e-13 5.8074e-13 5.8074e-13
9676  6.9661e-13 5.0728e-13 5.0728e-13 5.0728e-13
9677  1.4451e-12 5.9758e-13 5.9758e-13 5.9758e-13
9678  1.0144e-12 3.7131e-14 3.7131e-14 -9.5280e-15
9679  1.4698e-12 1.6273e-13 1.6273e-13 1.6273e-13
9680  1.5783e-12 4.6069e-13 4.6069e-13 4.6069e-13
9681  1.4199e-12 2.9765e-13 -1.1897e-13 -1.1897e-13
9682  1.4232e-12 4.0570e-13 4.0570e-13 4.0570e-13
9683  1.4130e-12 -2.2918e-13 -7.6600e-13 -2.2918e-13
9684  1.1101e-12 -2.0052e-14 7.4227e-13 -2.0052e-14
9685  1.0877e-12 5.7221e-13 5.7221e-13 5.7221e-13
9686  1.9715e-12 2.5800e-13 2.2069e-13 2.2069e-13
9687  9.1396e-13 4.3258e-13 4.3258e-13 4.3258e-13
9688  1.3652e-12 2.5064e-13 2.5064e-13 2.5064e-13
9689  1.6614e-12 4.6838e-13 4.6838e-13 4.6838e-13
9690  1.4363e-12 2.8772e-13 3.6346e-13 2.8772e-13
9691  1.2107e-12 4.4600e-13 4.4600e-13 4.4600e-13
9692  9.8897e-13 8.8207e-13 8.8207e-13 -7.5469e-15
9693  1.8052e-12 1.6549e-13 1.6549e-13 4.1847e-13
9694  9.9970e-13 -3.3143e-14 -3.3143e-14 -7.7254e-14
9695  1.2074e-12 3.7471e-13 3.7471e-13 3.7471e-13
9696  1.0905e-12 9.9323e-14 1.5573e-13 5.0623e-13
9697  1.2063e-12 -6.7676e-14 1.3242e-13 -6.7676e-14
9698  1.3093e-12 5.0742e-13 5.0742e-13 5.0742e-13
9699  1.2799e-12 5.5423e-13 5.5423e-13 5.5423e-13
9700  1.1213e-12 2.2582e-13 2.2582e-13 2.2582e-13
9701  1.3666e-12 2.9056e-13 -4.9643e-13 2.9056e-13
9702  1.4534e-12 -2.1558e-13 -4.2761e-13 1.9531e-13
9703  1.0578e-12 -3.5426e-13 -3.5426e-13 -3.5426e-13
9704  1.2351e-12 4.7369e-13 4.7369e-13 4.7369e-13
9705  1.0641e-12 3.8007e-13 -1.8812e-13 3.8007e-13
9706  1.1550e-12 4.7865e-13 4.7865e-13 4.7865e-13
9707  1.4217e-12 1.1682e-12 1.1682e-12 -2.0937e-13
9708  1.2729e-12 1.3505e-13 1.3505e-13 2.3852e-13
9709  8.8732e-13 2.9760e-13 8.6455e-13 8.6455e-13
9710  1.1434e-12 -1.3478e-13 3.6396e-13 9.6513e-13
9711  1.1239e-12 2.5947e-13 3.4161e-14 3.4161e-14
9712  1.3964e-12 -7.2899e-15 -7.2899e-15 1.5706e-13
9713  9.3450e-13 4.1363e-13 4.1363e-13 -2.0671e-13
9714  1.2839e-12 7.6683e-13 3.1411e-13 3.1411e-13
9715  1.1676e-12 2.6838e-13 1.4365e-13 1.4365e-13
9716  1.5637e-12 1.9769e-13 1.9769e-13 1.9769e-13
9717  1.3364e-12 3.7028e-13 3.7028e-13 3.7028e-13
9718  1.4235e-12 5.5636e-13 5.5636e-13 5.5636e-13
9719  1.3449e-12 -1.0511e-13 -1.0511e-13 -2.1278e-13
9720  1.2057e-12 -5.9733e-13 4.2087e-13 -5.9733e-13
9721  1.4320e-12 -4.7171e-13 -1.2861e-13 -4.7171e-13
9722  1.9120e-12 4.2077e-13 7.8274e-14 4.8572e-13
9723  1.5253e-12 2.4687e-13 2.4687e-13 2.4687e-13
9724  8.6287e-13 1.9671e-13 -4.7338e-13 1.1338e-13
9725  1.0655e-12 1.4010e-13 -3.9929e-13 -3.9929e-13
9726  1.3643e-12 -8.9751e-14 4.9067e-13 4.9067e-13
9727  1.3634e-12 1.8492e-13 -1.9772e-15 -1.9772e-15
9728  1.2200e-12 2.5304e-13 2.5304e-13 2.5304e-13
9729  9.9922e-13 -1.7093e-13 1.4889e-13 2.0424e-13
9730  8.8130e-13 6.1041e-13 -1.6786e-13 6.1041e-13
9731  1.3327e-12 7.9841e-13 7.9841e-13 7.9841e-13
9732  1.8033e-12 5.9935e-13 -2.0177e-13 -3.4638e-14
9733  1.2770e-12 4.2823e-13 4.2823e-13 4.2823e-13
9734  1.1476e-12 5.2210e-13 5.2210e-13 -3.2346e-14
9735  1.1729e-12 1.1729e-12 1.1729e-12 1.1729e-12
9736  1.5137e-12 4.5572e-13 4.5572e-13 6.4626e-13
9737  1.1507e-12 7.8257e-14 -3.4448e-13 -2.0492e-13
9738  1.1485e-12 5.0953e-13 5.0953e-13 5.0953e-13
9739  2.1668e-12 2.4467e-13 2.4467e-13 2.4467e-13
9740  1.1573e-12 -9.1438e-14 -9.1438e-14 -9.1438e-14
9741  1.3183e-12 8.4632e-14 8.4632e-14 8.4632e-14
9742  1.2756e-12 2.1780e-13 -1.7363e-13 -4.5324e-14
9743  1.3078e-12 1.7195e-14 4.6535e-13 -4.8976e-13
9744  1.3116e-12 2.3173e-13 2.3173e-13 2.3173e-13
9745  1.5059e-12 -2.8928e-13 4.2912e-13 -2.8928e-13
9746  1.4959e-12 6.9735e-14 -5.1346e-13 4.5522e-13
9747  1.3508e-12 5.9096e-13 3.3778e-13 5.6963e-14
9748  9.4323e-13 2.4748e-13 2.4748e-13 3.2279e-13
9749  1.7910e-12 3.4670e-13 3.4670e-13 3.4670e-13
9750  1.4070e-12 2.4296e-13 5.1963e-14 2.4296e-13
9751  1.2551e-12 -8.4072e-14 -8.4072e-14 -8.4072e-14
9752  9.4036e-13 2.7903e-13 2.7903e-13 2.7903e-13
9753  1.3641e-12 9.0158e-13 9.0158e-13 9.0158e-13
9754  1.3765e-12 3.0727e-14 1.1964e-12 3.0727e-14
9755  1.6882e-12 6.1668e-13 6.1668e-13 6.1668e-13
9756  1.3755e-12 -3.5996e-14 -3.5996e-14 -3.5996e-14
9757  1.2611e-12 2.1092e-13 2.8659e-14 2.1092e-13
9758  1.7362e-12 4.0472e-13 -4.7269e-13 -4.7269e-13
9759  1.0465e-12 8.6532e-13 8.6532e-13 8.6532e-13
9760  1.3514e-12 7.8763e-13 7.8763e-13 7.8763e-13
9761  1.0321e-12 -1.4311e-13 -1.4311e-13 -1.4311e-13
9762  1.2222e-12 9.3099e-14 9.3099e-14 9.3099e-14
9763  1.1825e-12 4.2294e-13 2.4731e-15 2.4731e-15
9764  1.3462e-12 3.8356e-13 3.5088e-13 3.8356e-13
9765  1.1580e-12 7.0541e-13 7.0541e-13 7.0541e-13
9766  1.2037e-12 1.2997e-13 1.2997e-13 1.2997e-13
9767  1.6239e-12 -3.8718e-13 -3.8718e-13 4.7683e-13
9768  1.1848e-12 7.4642e-14 7.4642e-14 7.4642e-14
9769  1.3376e-12 6.4334e-13 6.4334e-13 -3.0911e-13
9770  1.3101e-12 3.4917e-13 3.4917e-13 3.4917e-13
9771  1.2651e-12 7.3100e-13 2.1771e-13 2.1771e-13
9772  1.3095e-12 1.3095e-12 1.3095e-12 1.3095e-12
9773  9.4943e-13 3.7061e-13 3.7061e-13 -1.9946e-13
9774  1.5270e-12 4.0220e-13 4.0220e-13 4.0220e-13
9775  1.6041e-12 3.7988e-13 3.7988e-13 3.7988e-13
9776  9.7229e-13 1.1301e-13 9.1036e-13 9.1036e-13
9777  1.1274e-12 2.8627e-13 2.8627e-13 2.8627e-13
9778  1.0769e-12 7.3554e-13 7.3554e-13 7.3554e-13
9779  1.2668e-12 3.8340e-14 -1.7374e-14 -1.7374e-14
9780  1.2136e-12 -1.0243e-14 -1.2795e-13 -1.2795e-13
9781  8.9132e-13 5.4635e-14 5.4635e-14 5.4635e-14
9782  8.5145e-13 2.0286e-13 2.0286e-13 -5.0852e-14
9783  7.2607e-13 7.6063e-14 -2.0066e-13 -4.5342e-13
9784  1.1280e-12 5.6385e-13 5.6385e-13 3.6890e-13
9785  1.7300e-12 2.1958e-13 -8.6802e-14 2.1958e-13
9786  1.1076e-12 6.1255e-13 6.1255e-13 -1.6308e-13
9787  1.1136e-12 5.2345e-13 5.7415e-13 5.2345e-13
9788  1.2286e-12 -5.2190e-14 3.1409e-14 -5.2190e-14
9789  1.1040e-12 3.0607e-13 3.0607e-13 3.0607e-13
9790  1.6990e-12 6.2522e-13 -2.7575e-13 -2.9137e-13
9791  1.0794e-12 5.8117e-14 5.8117e-14 1.3637e-14
9792  1.6882e-12 -3.0315e-13 2.2942e-13 2.0026e-13
9793  1.6705e-12 2.2443e-14 2.2443e-14 2.2443e-14
9794  1.9985e-12 2.4365e-13 -3.4785e-14 5.3018e-14
9795  1.1935e-12 3.0066e-13 3.0066e-13 3.0066e-13
9796  1.8494e-12 1.4193e-13 2.6193e-15 2.6193e-15
9797  1.5391e-12 1.0127e-12 1.0127e-12 1.0127e-12
9798  1.5383e-12 4.3681e-13 1.1258e-13 -4.4257e-13
9799  1.0961e-12 3.0901e-13 3.0901e-13 3.0901e-13
9800  1.4311e-12 4.7670e-13 1.4311e-12 4.7670e-13
9801  1.0117e-12 2.3032e-13 2.3032e-13 2.3032e-13
9802  1.6842e-12 1.2713e-13 1.2713e-13 1.2713e-13
9803  9.1875e-13 4.8603e-14 4.8603e-14 7.6861e-14
9804  1.0974e-12 1.4392e-13 1.4392e-13 1.4392e-13
9805  1.4038e-12 4.9199e-13 4.9199e-13 1.4836e-13
9806  1.0365e-12 4.1303e-13 4.1303e-13 4.1303e-13
9807  1.3368e-12 -7.7918e-14 -7.7918e-14 -7.7918e-14
9808  1.4871e-12 2.9441e-13 2.9441e-13 2.9441e-13
9809  1.1858e-12 8.2686e-13 -2.9128e-13 -2.9128e-13
9810  1.5012e-12 2.8245e-13 2.8245e-13 2.8245e-13
9811  1.2054e-12 5.1979e-13 5.1979e-13 -1.0884e-13
9812  1.3510e-12 -3.6336e-13 5.8089e-13 -3.6336e-13
9813  1.4467e-12 5.1276e-13 2.4869e-13 5.1276e-13
9814  1.1764e-12 7.3751e-13 7.3751e-13 7.3751e-13
9815  1.5628e-12 3.3885e-13 3.3885e-13 4.2182e-13
9816  1.6655e-12 1.2138e-13 4.4934e-13 1.2138e-13
9817  1.4954e-12 5.6939e-13 -1.4081e-13 -1.4081e-13
9818  1.2320e-12 3.6788e-13 -1.8519e-13 -2.3636e-13
9819  1.8254e-12 3.6640e-13 3.6640e-13 -6.5155e-14
9820  1.7812e-12 6.5718e-13 6.5718e-13 6.5718e-13
9821  1.7360e-12 4.6871e-13 4.6871e-13 4.6871e-13
9822  1.2087e-12 1.5215e-13 3.8024e-13 1.5215e-13
9823  1.7224e-12 1.4556e-13 1.4556e-13 1.4556e-13
9824  1.4692e-12 5.5369e-13 -3.1622e-13 5.5369e-13
9825  1.1093e-12 1.1093e-12 1.1093e-12 -3.9638e-13
9826  9.5784e-13 3.9353e-13 3.9353e-13 3.9353e-13
9827  1.2566e-12 3.7059e-13 3.7059e-13 3.7059e-13
9828  1.4281e-12 -3.8053e-15 -2.3852e-13 -3.8053e-15
9829  1.3632e-12 1.5136e-13 3.2968e-13 1.5136e-13
9830  1.2566e-12 -1.8931e-13 -1.8931e-13 -1.8931e-13
9831  1.4392e-12 9.1088e-13 9.1088e-13 9.1088e-13
9832  1.4753e-12 -5.7720e-16 6.8789e-13 6.8789e-13
9833  1.3525e-12 1.3042e-12 1.3042e-12 1.3042e-12
9834  9.8609e-13 -7.6506e-14 -1.1816e-13 -1.1816e-13
9835  1.1599e-12 1.3792e-13 -1.2753e-13 -1.2753e-13
9836  1.2325e-12 1.5544e-13 1.5544e-13 2.8630e-13
9837  1.9312e-12 6.5645e-13 6.5645e-13 6.5645e-13
9838  1.3386e-12 9.5521e-13 9.5521e-13 9.5521e-13
9839  1.2819e-12 -5.5204e-13 -8.3030e-14 -5.5204e-13
9840  1.9571e-12 -8.0422e-14 -9.7270e-14 -8.0422e-14
9841  1.0878e-12 2.7002e-13 1.2896e-14 2.7002e-13
9842  1.5970e-12 9.7758e-13 9.7758e-13 9.7758e-13
9843  9.9509e-13 4.0551e-13 4.0551e-13 4.0551e-13
9844  1.0473e-12 7.4910e-13 7.4910e-13 7.4910e-13
9845  1.8457e-12 -2.8776e-15 2.1352e-13 2.1352e-13
9846  1.7099e-12 -1.5923e-14 1.0861e-13 -1.5923e-14
9847  1.4287e-12 2.1736e-13 2.1736e-13 4.6758e-14
9848  1.2785e-12 1.0579e-12 1.0579e-12 1.0579e-12
9849  1.3488e-12 -3.5886e-13 -3.9223e-13 -1.1315e-13
9850  1.0862e-12 6.9663e-14 6.9663e-14 6.9663e-14
9851  1.2693e-12 -2.2517e-14 -2.2517e-14 -2.1936e-13
9852  1.2234e-12 4.2586e-13 -2.3122e-14 1.5512e-13
9853  1.4290e-12 3.7372e-13 -1.5258e-13 -1.5258e-13
9854  1.1089e-12 2.9186e-13 2.9186e-13 2.9186e-13
9855  1.1505e-12 5.8535e-14 5.8535e-14 7.4962e-13
9856  1.2141e-12 -2.8066e-14 -2.8066e-14 -2.8066e-14
9857  1.2049e-12 8.7158e-13 8.7158e-13 8.7158e-13
9858  2.1535e-12 1.0350e-12 1.0350e-12 1.0350e-12
9859  2.1490e-12 1.3549e-13 1.3549e-13 2.4740e-13
9860  1.2453e-12 -2.0829e-13 2.5232e-13 -2.0829e-13
9861  1.5170e-12 3.8275e-13 3.8275e-13 3.8275e-13
9862  1.1462e-12 6.0894e-13 6.0894e-13 6.0894e-13
9863  1.1635e-12 1.0719e-12 1.0719e-12 1.0719e-12
9864  1.5771e-12 1.6266e-13 -7.9476e-14 1.6266e-13
9865  1.0083e-12 3.5442e-13 3.5442e-13 3.5442e-13
9866  1.0385e-12 3.8506e-13 -4.2139e-13 3.8506e-13
9867  1.3005e-12 7.1303e-13 7.1303e-13 7.1303e-13
9868  9.5576e-13 -2.1978e-13 9.2222e-14 1.3834e-14
9869  1.6595e-12 9.2769e-13 9.2769e-13 9.2769e-13
9870  1.8343e-12 1.1212e-12 1.1212e-12 1.1212e-12
9871  1.3482e-12 7.1139e-13 7.1139e-13 7.1139e-13
9872  9.9726e-13 6.7625e-14 6.7625e-14 4.4214e-13
9873  1.8385e-12 2.4986e-14 2.4986e-14 2.4986e-14
9874  1.7355e-12 7.2160e-13 7.2160e-13 7.2160e-13
9875  1.1707e-12 7.1010e-13 1.6170e-13 -5.0482e-13
9876  1.2783e-12 3.9808e-14 3.9808e-14 3.9808e-14
9877  1.3248e-12 1.9728e-13 -2.7785e-13 1.9728e-13
9878  1.2726e-12 9.4736e-13 -5.3388e-14 9.4736e-13
9879  1.7147e-12 5.3132e-13 5.3132e-13 5.3132e-13
9880  1.1417e-12 8.1572e-13 8.1572e-13 8.1572e-13
9881  1.3601e-12 3.6934e-13 4.4251e-13 3.6934e-13
9882  9.9474e-13 4.6828e-13 2.4780e-13 -1.1996e-13
9883  1.6684e-12 -3.2392e-13 2.4476e-13 2.3079e-13
9884  1.5768e-12 -3.3192e-13 8.7944e-13 8.7944e-13
9885  1.0028e-12 6.0865e-14 3.7227e-15 3.7227e-15
9886  1.1306e-12 -2.1266e-13 -2.1266e-13 -2.1266e-13
9887  1.1597e-12 -2.0754e-13 1.9879e-13 -1.9304e-13
9888  1.2221e-12 1.0211e-12 1.0211e-12 1.0211e-12
9889  1.0112e-12 5.8493e-13 -5.4740e-14 5.8493e-13
9890  1.3685e-12 -1.2648e-13 -1.2648e-13 -1.2648e-13
9891  1.5852e-12 3.2488e-13 3.2488e-13 3.2488e-13
9892  9.8479e-13 5.6267e-13 1.1147e-13 -1.0749e-13
9893  1.2590e-12 4.4426e-14 1.7939e-14 1.7939e-14
9894  1.3995e-12 4.5470e-13 4.5470e-13 4.5470e-13
9895  1.2634e-12 1.0197e-13 1.0197e-13 2.3194e-13
9896  1.7313e-12 1.4287e-13 1.7313e-12 1.4287e-13
9897  1.4328e-12 3.7408e-13 3.7408e-13 3.7408e-13
9898  1.5653e-12 8.8320e-14 2.9800e-13 8.8320e-14
9899  1.5434e-12 6.5136e-13 6.5136e-13 6.5136e-13
9900  1.2951e-12 2.5625e-13 -7.4000e-14 2.5625e-13
9901  1.6439e-12 6.0493e-14 6.0493e-14 6.0493e-14
9902  1.3974e-12 3.9960e-15 3.4321e-13 3.0282e-14
9903  1.5039e-12 4.7098e-13 4.7098e-13 4.7098e-13
9904  9.6075e-13 4.8181e-13 4.8181e-13 4.8181e-13
9905  9.2242e-13 8.8190e-14 8.8190e-14 8.8190e-14
9906  1.2573e-12 2.0762e-13 -4.0628e-13 2.0049e-13
9907  1.0946e-12 4.2880e-13 5.1373e-13 4.2880e-13
9908  1.3731e-12 2.8254e-13 2.8254e-13 2.8254e-13
9909  1.2687e-12 4.5274e-13 -2.4751e-13 -1.2671e-13
9910  1.1638e-12 7.8515e-13 7.8515e-13 7.8515e-13
9911  1.1040e-12 1.9192e-13 5.0694e-13 1.9192e-13
9912  1.1873e-12 -8.1589e-14 -8.1589e-14 4.6115e-13
9913  1.3473e-12 2.0385e-13 7.6961e-13 1.9809e-14
9914  1.3940e-12 3.3338e-13 3.3338e-13 3.3338e-13
9915  1.0028e-12 7.4608e-13 -7.9811e-14 7.4608e-13
9916  1.1160e-12 4.6085e-13 -4.0445e-13 4.3945e-13
9917  9.4941e-13 1.1158e-13 1.1158e-13 2.4761e-13
9918  1.6441e-12 1.6226e-13 1.6226e-13 1.6226e-13
9919  1.2899e-12 6.6098e-14 6.6098e-14 6.6098e-14
9920  1.2358e-12 9.8455e-14 1.4428e-13 9.8455e-14
9921  1.1085e-12 6.5888e-13 6.5888e-13 6.5888e-13
9922  1.3984e-12 -7.8033e-14 -7.8033e-14 1.1271e-13
9923  1.4065e-12 1.6531e-13 1.6531e-13 1.6531e-13
9924  1.4593e-12 5.0998e-13 3.9344e-13 5.0998e-13
9925  1.3198e-12 -1.6005e-13 -2.2881e-13 -1.6005e-13
9926  1.3072e-12 1.5457e-14 1.5457e-14 2.6848e-13
9927  1.6418e-12 2.3911e-13 9.1216e-14 2.3911e-13
9928  1.9843e-12 2.8111e-13 6.7229e-13 -2.9164e-13
9929  1.2878e-12 4.4531e-13 4.4531e-13 4.4531e-13
9930  1.1458e-12 1.1259e-13 -3.9394e-14 1.1259e-13
9931  1.5204e-12 4.2691e-13 4.2691e-13 4.2691e-13
9932  1.2665e-12 2.5623e-13 2.5623e-13 2.5623e-13
9933  1.4842e-12 -2.4418e-13 9.4596e-13 9.4596e-13
9934  1.3057e-12 2.1835e-13 2.1835e-13 2.1835e-13
9935  1.3001e-12 7.7868e-14 7.7868e-14 5.6412e-13
9936  1.1064e-12 2.4143e-14 2.4143e-14 2.4143e-14
9937  2.0266e-12 -2.7729e-13 2.1701e-13 -2.7729e-13
9938  1.1236e-12 2.2148e-13 -1.5858e-13 2.2148e-13
9939  1.3877e-12 -5.8991e-14 1.1407e-12 1.1407e-12
9940  1.4922e-12 1.6793e-13 -1.6324e-13 -1.6324e-13
9941  1.2921e-12 2.6827e-13 2.6827e-13 -4.5494e-13
9942  1.2576e-12 -3.7284e-14 7.3414e-13 -3.7284e-14
9943  1.7747e-12 -1.7374e-13 3.0592e-13 -1.7374e-13
9944  1.2177e-12 -1.9283e-13 2.8997e-13 2.8997e-13
9945  1.2174e-12 1.3143e-13 -1.3384e-13 -3.9827e-15
9946  1.1540e-12 3.6549e-13 3.6549e-13 3.1792e-13
9947  1.4942e-12 -1.5420e-13 6.2744e-13 -1.5420e-13
9948  1.9580e-12 1.3001e-13 -2.9428e-14 1.3001e-13
9949  9.8347e-13 3.8757e-13 3.8757e-13 3.8757e-13
9950  1.2511e-12 4.2567e-14 4.2567e-14 4.2567e-14
9951  1.4044e-12 2.0763e-13 2.9609e-13 4.7137e-13
9952  1.1746e-12 4.7016e-13 4.7016e-13 4.7016e-13
9953  1.1460e-12 4.5120e-13 4.5120e-13 4.5120e-13
9954  8.2085e-13 4.9145e-13 -2.4615e-13 4.9145e-13
9955  1.4399e-12 2.1283e-13 2.1283e-13 1.2408e-14
9956  1.5016e-12 -4.0032e-16 1.2598e-12 1.2598e-12
9957  1.2459e-12 6.0956e-13 -2.6958e-13 -2.6958e-13
9958  1.3608e-12 -8.7088e-14 -1.5596e-13 1.3275e-12
9959  9.1008e-13 7.0498e-13 7.0498e-13 7.0498e-13
9960  1.4824e-12 5.0351e-13 1.0444e-13 1.0444e-13
9961  1.3347e-12 1.0343e-13 1.0343e-13 1.0343e-13
9962  1.8338e-12 4.0870e-13 4.0870e-13 4.0870e-13
9963  1.9232e-12 1.0546e-13 3.0045e-13 1.0546e-13
9964  1.7646e-12 -4.9516e-14 -6.0207e-14 -6.0207e-14
9965  1.2852e-12 2.6837e-13 2.6837e-13 2.6837e-13
9966  1.0562e-12 9.6705e-13 9.6705e-13 9.6705e-13
9967  1.5602e-12 4.6452e-13 -2.2209e-13 4.6452e-13
9968  1.4033e-12 5.6542e-14 5.6542e-14 5.6542e-14
9969  1.3074e-12 3.1736e-13 -1.2348e-13 -1.2348e-13
9970  1.0463e-12 1.1876e-13 -3.7681e-14 1.1876e-13
9971  1.7448e-12 6.8315e-14 6.8315e-14 6.8315e-14
9972  1.2622e-12 -2.5940e-14 6.3806e-13 -2.5940e-14
9973  1.2447e-12 4.3060e-13 4.3060e-13 4.3060e-13
9974  1.6631e-12 -5.2278e-14 -5.2278e-14 1.7227e-13
9975  1.4365e-12 7.5098e-13 7.5098e-13 7.5098e-13
9976  1.0967e-12 4.1814e-13 6.1131e-13 6.1131e-13
9977  1.1218e-12 1.2585e-13 1.2585e-13 1.2585e-13
9978  1.3796e-12 -2.9019e-13 -3.5741e-13 -5.1262e-14
9979  1.4939e-12 2.6704e-14 3.0097e-15 2.6704e-14
9980  1.2057e-12 4.2006e-13 -1.2611e-13 4.2006e-13
9981  1.5454e-12 2.8897e-14 2.8897e-14 7.6108e-13
9982  1.0870e-12 4.0411e-14 4.0411e-14 -2.3164e-13
9983  1.3705e-12 5.5579e-13 5.5579e-13 5.5579e-13
9984  1.1583e-12 4.0648e-13 4.0648e-13 4.0648e-13
9985  1.8636e-12 5.0858e-13 5.0858e-13 5.0858e-13
9986  1.3751e-12 3.8746e-13 3.8746e-13 3.8746e-13
9987  9.3351e-13 2.2327e-13 1.1708e-13 1.1708e-13
9988  1.1941e-12 4.0093e-13 4.0093e-13 4.0093e-13
9989  1.0797e-12 -4.1576e-14 -4.1576e-14 4.7583e-13
9990  1.3451e-12 -2.0212e-13 3.0600e-13 3.0600e-13
9991  1.2117e-12 2.5060e-13 2.5060e-13 2.5060e-13
9992  1.0055e-12 -8.3198e-15 -8.3198e-15 -8.3198e-15
9993  1.2741e-12 1.4743e-13 1.4743e-13 1.4743e-13
9994  1.6276e-12 -5.8137e-14 -1.0833e-15 -1.0833e-15
9995  9.7346e-13 2.8781e-13 -1.9184e-13 2.8781e-13
9996  9.6045e-13 -2.6286e-13 1.9580e-13 -2.6286e-13
9997  1.2726e-12 2.0044e-13 2.0044e-13 2.0044e-13
9998  1.6462e-12 4.9033e-13 4.9033e-13 4.9033e-13
9999  1.3665e-12 7.0013e-14 6.1599e-13 6.1599e-13
10000 1.4987e-12 5.3299e-14 3.8075e-13 5.3299e-14
