iter  continuity x-velocity y-velocity Energy
1     1.1367e+01 1.8965e+04 2.9204e+03 1.2639e+07
