iter  continuity x-velocity y-velocity Energy
1     0.0000e+00 0.0000e+00 0.0000e+00 0.0000e+00
