iter  continuity x-velocity y-velocity Energy
